<?xml version="1.0" encoding="UTF-8"?>

<!-- generated on 2021-06-27 23:55:04 by Eclipse SUMO duarouter Version 1.9.2
<configuration xmlns:xsi="http://www.w3.org/2001/XMLSchema-instance" xsi:noNamespaceSchemaLocation="http://sumo.dlr.de/xsd/duarouterConfiguration.xsd">

    <input>
        <net-file value="grid.net.xml"/>
        <route-files value="trips.trips.xml"/>
    </input>

    <output>
        <output-file value="grid.rou.xml"/>
        <alternatives-output value="grid.rou.alt.xml"/>
    </output>

    <time>
        <begin value="0"/>
        <end value="2000"/>
    </time>

    <report>
        <no-warnings value="true"/>
        <ignore-errors value="true"/>
        <no-step-log value="true"/>
    </report>

</configuration>
-->

<routes xmlns:xsi="http://www.w3.org/2001/XMLSchema-instance" xsi:noNamespaceSchemaLocation="http://sumo.dlr.de/xsd/routes_file.xsd">
    <vehicle id="0" depart="0.00">
        <route edges="C1D1 D1D2 D2C2 C2B2 B2A2 A2A1 A1A0 A0B0"/>
    </vehicle>
    <vehicle id="1" depart="0.80">
        <route edges="B1A1 A1A2 A2B2 B2B1 B1B0 B0A0"/>
    </vehicle>
    <vehicle id="2" depart="1.60">
        <route edges="C3B3 B3B2 B2B1 B1C1 C1C2 C2B2"/>
    </vehicle>
    <vehicle id="3" depart="2.40">
        <route edges="D1D2 D2C2 C2B2 B2A2 A2A1 A1B1"/>
    </vehicle>
    <vehicle id="4" depart="3.20">
        <route edges="B2C2 C2C1 C1B1 B1A1 A1A0 A0B0"/>
    </vehicle>
    <vehicle id="5" depart="4.00">
        <route edges="B0A0 A0A1 A1B1 B1C1 C1C0 C0B0"/>
    </vehicle>
    <vehicle id="6" depart="4.80">
        <route edges="A0B0 B0B1 B1C1 C1C0 C0B0 B0A0"/>
    </vehicle>
    <vehicle id="7" depart="5.60">
        <route edges="C1D1 D1D2 D2C2 C2C1 C1C0 C0D0"/>
    </vehicle>
    <vehicle id="8" depart="6.40">
        <route edges="B0A0 A0A1 A1A2 A2B2 B2C2 C2C1 C1B1"/>
    </vehicle>
    <vehicle id="9" depart="7.20">
        <route edges="D0C0 C0B0 B0A0 A0A1"/>
    </vehicle>
    <vehicle id="10" depart="8.00">
        <route edges="D0C0 C0C1 C1C2 C2C3"/>
    </vehicle>
    <vehicle id="11" depart="8.80">
        <route edges="B1C1 C1C0 C0B0 B0A0 A0A1 A1A2 A2B2"/>
    </vehicle>
    <vehicle id="12" depart="9.60">
        <route edges="D2D3 D3C3 C3B3 B3B2 B2B1 B1C1"/>
    </vehicle>
    <vehicle id="13" depart="10.40">
        <route edges="A1B1"/>
    </vehicle>
    <vehicle id="14" depart="11.20">
        <route edges="D1C1 C1C0"/>
    </vehicle>
    <vehicle id="15" depart="12.00">
        <route edges="D0C0 C0C1 C1C2 C2D2"/>
    </vehicle>
    <vehicle id="16" depart="12.80">
        <route edges="C0C1 C1D1 D1D2 D2D3 D3C3"/>
    </vehicle>
    <vehicle id="17" depart="13.60">
        <route edges="B2B1 B1B0 B0C0 C0D0"/>
    </vehicle>
    <vehicle id="18" depart="14.40">
        <route edges="D0D1 D1C1 C1C2"/>
    </vehicle>
    <vehicle id="19" depart="15.20">
        <route edges="D1C1 C1B1"/>
    </vehicle>
    <vehicle id="20" depart="16.00">
        <route edges="C2C3 C3B3 B3A3 A3A2 A2A1 A1A0"/>
    </vehicle>
    <vehicle id="21" depart="16.80">
        <route edges="B0B1 B1A1"/>
    </vehicle>
    <vehicle id="22" depart="17.60">
        <route edges="A1B1 B1C1 C1C0 C0B0 B0B1"/>
    </vehicle>
    <vehicle id="23" depart="18.40">
        <route edges="A2A1 A1A0 A0B0 B0B1 B1A1"/>
    </vehicle>
    <vehicle id="24" depart="19.20">
        <route edges="C1D1 D1D2 D2C2 C2B2 B2A2"/>
    </vehicle>
    <vehicle id="25" depart="20.00">
        <route edges="B2A2 A2A1 A1B1 B1B0 B0A0"/>
    </vehicle>
    <vehicle id="26" depart="20.80">
        <route edges="B1A1 A1A2 A2B2 B2C2 C2D2 D2D1"/>
    </vehicle>
    <vehicle id="27" depart="21.60">
        <route edges="C1D1 D1D2 D2C2 C2C1 C1C0"/>
    </vehicle>
    <vehicle id="28" depart="22.40">
        <route edges="A3B3 B3C3 C3C2 C2D2"/>
    </vehicle>
    <vehicle id="29" depart="23.20">
        <route edges="A3A2 A2B2 B2B1"/>
    </vehicle>
    <vehicle id="30" depart="24.00">
        <route edges="D3D2 D2C2 C2C1 C1D1"/>
    </vehicle>
    <vehicle id="31" depart="24.80">
        <route edges="C0D0 D0D1 D1D2 D2C2 C2C1"/>
    </vehicle>
    <vehicle id="32" depart="25.60">
        <route edges="D0D1 D1D2 D2C2 C2C3 C3D3"/>
    </vehicle>
    <vehicle id="33" depart="26.40">
        <route edges="B0B1 B1A1 A1A0 A0B0"/>
    </vehicle>
    <vehicle id="34" depart="27.20">
        <route edges="B1B2 B2C2 C2C1 C1B1 B1A1"/>
    </vehicle>
    <vehicle id="35" depart="28.00">
        <route edges="B0A0 A0A1 A1A2 A2B2 B2C2 C2D2 D2D3"/>
    </vehicle>
    <vehicle id="36" depart="28.80">
        <route edges="D1D0 D0C0 C0B0 B0B1 B1B2"/>
    </vehicle>
    <vehicle id="37" depart="29.60">
        <route edges="C2B2 B2B3"/>
    </vehicle>
    <vehicle id="38" depart="30.40">
        <route edges="D2C2 C2C3 C3B3 B3B2"/>
    </vehicle>
    <vehicle id="39" depart="31.20">
        <route edges="B0C0"/>
    </vehicle>
    <vehicle id="40" depart="32.00">
        <route edges="C0D0 D0D1 D1C1 C1B1 B1B0 B0C0"/>
    </vehicle>
    <vehicle id="41" depart="32.80">
        <route edges="C1B1 B1B0 B0C0 C0D0 D0D1 D1D2"/>
    </vehicle>
    <vehicle id="42" depart="33.60">
        <route edges="B2B3 B3C3 C3C2 C2C1 C1C0 C0B0 B0A0"/>
    </vehicle>
    <vehicle id="43" depart="34.40">
        <route edges="D3D2 D2D1 D1D0 D0C0 C0B0"/>
    </vehicle>
    <vehicle id="44" depart="35.20">
        <route edges="A1B1 B1B2 B2A2 A2A1 A1A0"/>
    </vehicle>
    <vehicle id="45" depart="36.00">
        <route edges="A2A1 A1B1 B1C1 C1D1"/>
    </vehicle>
    <vehicle id="46" depart="36.80">
        <route edges="C3D3 D3D2 D2D1 D1C1 C1B1 B1B2 B2C2"/>
    </vehicle>
    <vehicle id="47" depart="37.60">
        <route edges="A1A2 A2B2 B2B1"/>
    </vehicle>
    <vehicle id="48" depart="38.40">
        <route edges="D3D2 D2D1 D1D0 D0C0 C0C1"/>
    </vehicle>
    <vehicle id="49" depart="39.20">
        <route edges="D3C3 C3C2 C2D2 D2D1 D1C1"/>
    </vehicle>
    <vehicle id="50" depart="40.00">
        <route edges="A0A1 A1A2 A2B2 B2C2 C2D2"/>
    </vehicle>
    <vehicle id="51" depart="40.80">
        <route edges="C2C1 C1D1 D1D0 D0C0 C0C1"/>
    </vehicle>
    <vehicle id="52" depart="41.60">
        <route edges="B1A1 A1A2 A2B2 B2C2 C2C1 C1D1"/>
    </vehicle>
    <vehicle id="53" depart="42.40">
        <route edges="A2A1 A1B1 B1B2 B2B3 B3A3"/>
    </vehicle>
    <vehicle id="54" depart="43.20">
        <route edges="B3A3 A3A2 A2B2 B2C2 C2D2 D2D3"/>
    </vehicle>
    <vehicle id="55" depart="44.00">
        <route edges="D1D0 D0C0 C0C1 C1B1 B1B0 B0C0"/>
    </vehicle>
    <vehicle id="56" depart="44.80">
        <route edges="C0B0 B0A0 A0A1 A1A2 A2A3 A3B3"/>
    </vehicle>
    <vehicle id="57" depart="45.60">
        <route edges="D2C2 C2C3 C3D3 D3D2 D2D1 D1C1"/>
    </vehicle>
    <vehicle id="58" depart="46.40">
        <route edges="B1B0 B0C0 C0C1 C1D1"/>
    </vehicle>
    <vehicle id="59" depart="47.20">
        <route edges="C1C0 C0B0 B0A0 A0A1 A1A2 A2B2"/>
    </vehicle>
    <vehicle id="60" depart="48.00">
        <route edges="C3C2 C2C1 C1D1 D1D0 D0C0 C0C1"/>
    </vehicle>
    <vehicle id="61" depart="48.80">
        <route edges="C3D3 D3D2 D2D1 D1D0 D0C0 C0C1"/>
    </vehicle>
    <vehicle id="62" depart="49.60">
        <route edges="A0A1 A1B1 B1C1"/>
    </vehicle>
    <vehicle id="63" depart="50.40">
        <route edges="A0B0 B0B1 B1B2 B2C2 C2D2 D2D1"/>
    </vehicle>
    <vehicle id="64" depart="51.20">
        <route edges="D1D0 D0C0 C0B0 B0B1 B1C1 C1C0 C0D0 D0D1"/>
    </vehicle>
    <vehicle id="65" depart="52.00">
        <route edges="B1B0 B0A0 A0A1 A1A2"/>
    </vehicle>
    <vehicle id="66" depart="52.80">
        <route edges="D1D0 D0C0 C0C1 C1C2 C2D2 D2D3"/>
    </vehicle>
    <vehicle id="67" depart="53.60">
        <route edges="A1B1 B1B2 B2B3 B3C3"/>
    </vehicle>
    <vehicle id="68" depart="54.40">
        <route edges="A1A2 A2A3 A3B3 B3C3 C3C2"/>
    </vehicle>
    <vehicle id="69" depart="55.20">
        <route edges="C3C2 C2B2 B2A2 A2A3"/>
    </vehicle>
    <vehicle id="70" depart="56.00">
        <route edges="B3C3 C3C2 C2C1 C1C0 C0D0"/>
    </vehicle>
    <vehicle id="71" depart="56.80">
        <route edges="B0C0 C0C1 C1D1 D1D0"/>
    </vehicle>
    <vehicle id="72" depart="57.60">
        <route edges="B2C2 C2C1 C1C0 C0B0 B0A0"/>
    </vehicle>
    <vehicle id="73" depart="58.40">
        <route edges="C0C1 C1C2 C2D2"/>
    </vehicle>
    <vehicle id="74" depart="59.20">
        <route edges="B0A0 A0A1 A1B1 B1B2"/>
    </vehicle>
    <vehicle id="75" depart="60.00">
        <route edges="D3D2 D2C2 C2C1 C1D1"/>
    </vehicle>
    <vehicle id="76" depart="60.80">
        <route edges="B3A3 A3A2 A2A1 A1B1 B1C1 C1C0 C0B0"/>
    </vehicle>
    <vehicle id="77" depart="61.60">
        <route edges="A2A3 A3B3 B3B2 B2B1 B1B0 B0A0"/>
    </vehicle>
    <vehicle id="78" depart="62.40">
        <route edges="B1C1 C1C2 C2D2 D2D1 D1C1 C1B1"/>
    </vehicle>
    <vehicle id="79" depart="63.20">
        <route edges="B0B1 B1C1 C1C0 C0B0 B0A0"/>
    </vehicle>
    <vehicle id="80" depart="64.00">
        <route edges="A1A2 A2B2 B2C2 C2C1 C1D1"/>
    </vehicle>
    <vehicle id="81" depart="64.80">
        <route edges="B0B1 B1C1 C1D1 D1D2 D2C2"/>
    </vehicle>
    <vehicle id="82" depart="65.60">
        <route edges="D1C1 C1B1 B1A1 A1A2"/>
    </vehicle>
    <vehicle id="83" depart="66.40">
        <route edges="B0B1 B1C1 C1C2 C2B2"/>
    </vehicle>
    <vehicle id="84" depart="67.20">
        <route edges="B0A0 A0A1 A1A2 A2B2"/>
    </vehicle>
    <vehicle id="85" depart="68.00">
        <route edges="D2D1 D1C1 C1B1"/>
    </vehicle>
    <vehicle id="86" depart="68.80">
        <route edges="B3B2 B2C2 C2C3 C3D3"/>
    </vehicle>
    <vehicle id="87" depart="69.60">
        <route edges="D0C0 C0B0 B0A0 A0A1 A1A2 A2A3 A3B3"/>
    </vehicle>
    <vehicle id="88" depart="70.40">
        <route edges="A1B1 B1B2 B2C2"/>
    </vehicle>
    <vehicle id="89" depart="71.20">
        <route edges="B2C2 C2C3 C3B3 B3B2"/>
    </vehicle>
    <vehicle id="90" depart="72.00">
        <route edges="C2D2 D2D1 D1C1 C1C2 C2B2"/>
    </vehicle>
    <vehicle id="91" depart="72.80">
        <route edges="D3C3 C3B3 B3A3 A3A2 A2A1 A1B1"/>
    </vehicle>
    <vehicle id="92" depart="73.60">
        <route edges="B2B3 B3A3 A3A2 A2A1 A1B1 B1C1"/>
    </vehicle>
    <vehicle id="93" depart="74.40">
        <route edges="D1C1 C1B1 B1B0 B0C0"/>
    </vehicle>
    <vehicle id="94" depart="75.20">
        <route edges="A3B3 B3C3 C3C2 C2B2 B2B3 B3A3"/>
    </vehicle>
    <vehicle id="95" depart="76.00">
        <route edges="B2C2 C2C1 C1B1 B1A1"/>
    </vehicle>
    <vehicle id="96" depart="76.80">
        <route edges="B0C0 C0D0 D0D1 D1D2 D2C2"/>
    </vehicle>
    <vehicle id="97" depart="77.60">
        <route edges="B3A3 A3A2 A2B2 B2C2 C2D2 D2D1 D1C1"/>
    </vehicle>
    <vehicle id="98" depart="78.40">
        <route edges="C0D0 D0D1 D1C1 C1B1 B1A1 A1A0"/>
    </vehicle>
    <vehicle id="99" depart="79.20">
        <route edges="D3D2 D2D1 D1C1 C1C0 C0D0 D0D1"/>
    </vehicle>
    <vehicle id="100" depart="80.00">
        <route edges="D3C3 C3C2 C2C1 C1D1 D1D2 D2C2"/>
    </vehicle>
    <vehicle id="101" depart="80.80">
        <route edges="D1C1 C1B1 B1B2 B2B3 B3A3 A3A2"/>
    </vehicle>
    <vehicle id="102" depart="81.60">
        <route edges="B3C3 C3C2 C2C1 C1C0 C0B0 B0A0"/>
    </vehicle>
    <vehicle id="103" depart="82.40">
        <route edges="B2B3 B3C3 C3C2 C2C1 C1B1 B1A1 A1A2"/>
    </vehicle>
    <vehicle id="104" depart="83.20">
        <route edges="B2B1 B1C1 C1C2 C2C3 C3D3 D3D2"/>
    </vehicle>
    <vehicle id="105" depart="84.00">
        <route edges="B0C0 C0C1 C1C2 C2C3 C3D3"/>
    </vehicle>
    <vehicle id="106" depart="84.80">
        <route edges="B3A3 A3A2 A2B2 B2C2"/>
    </vehicle>
    <vehicle id="107" depart="85.60">
        <route edges="D2D3 D3C3 C3C2 C2B2 B2B3 B3C3 C3D3 D3D2"/>
    </vehicle>
    <vehicle id="108" depart="86.40">
        <route edges="C0D0 D0D1 D1C1 C1C2 C2D2"/>
    </vehicle>
    <vehicle id="109" depart="87.20">
        <route edges="A2B2 B2B1 B1B0"/>
    </vehicle>
    <vehicle id="110" depart="88.00">
        <route edges="D3C3 C3C2 C2C1 C1B1"/>
    </vehicle>
    <vehicle id="111" depart="88.80">
        <route edges="C0D0 D0D1 D1D2 D2D3 D3C3 C3B3"/>
    </vehicle>
    <vehicle id="112" depart="89.60">
        <route edges="A1A0 A0B0 B0C0 C0C1 C1B1"/>
    </vehicle>
    <vehicle id="113" depart="90.40">
        <route edges="C0B0 B0B1 B1B2 B2C2 C2D2 D2D1 D1C1"/>
    </vehicle>
    <vehicle id="114" depart="91.20">
        <route edges="A3A2 A2B2 B2C2 C2D2 D2D3 D3C3"/>
    </vehicle>
    <vehicle id="115" depart="92.00">
        <route edges="A1B1 B1B2 B2A2 A2A3 A3B3"/>
    </vehicle>
    <vehicle id="116" depart="92.80">
        <route edges="C1C0 C0D0 D0D1 D1D2 D2C2 C2B2"/>
    </vehicle>
    <vehicle id="117" depart="93.60">
        <route edges="B0B1 B1B2 B2A2 A2A3"/>
    </vehicle>
    <vehicle id="118" depart="94.40">
        <route edges="D1D2 D2C2 C2B2 B2B1 B1B0 B0C0"/>
    </vehicle>
    <vehicle id="119" depart="95.20">
        <route edges="C1B1 B1B0 B0C0 C0C1 C1C2"/>
    </vehicle>
    <vehicle id="120" depart="96.00">
        <route edges="B2C2 C2C1 C1B1"/>
    </vehicle>
    <vehicle id="121" depart="96.80">
        <route edges="C0B0 B0B1 B1B2 B2C2 C2D2 D2D1"/>
    </vehicle>
    <vehicle id="122" depart="97.60">
        <route edges="B0A0 A0A1 A1A2 A2B2 B2C2 C2D2"/>
    </vehicle>
    <vehicle id="123" depart="98.40">
        <route edges="B0B1 B1B2 B2B3"/>
    </vehicle>
    <vehicle id="124" depart="99.20">
        <route edges="C2B2 B2B1 B1B0"/>
    </vehicle>
    <vehicle id="125" depart="100.00">
        <route edges="B1B2 B2C2 C2C3 C3B3"/>
    </vehicle>
    <vehicle id="126" depart="100.80">
        <route edges="A1B1 B1B2 B2B3 B3A3"/>
    </vehicle>
    <vehicle id="127" depart="101.60">
        <route edges="D3D2"/>
    </vehicle>
    <vehicle id="128" depart="102.40">
        <route edges="A1B1 B1B0 B0A0"/>
    </vehicle>
    <vehicle id="129" depart="103.20">
        <route edges="B0C0 C0C1 C1C2 C2D2 D2D1"/>
    </vehicle>
    <vehicle id="130" depart="104.00">
        <route edges="D1D0"/>
    </vehicle>
    <vehicle id="131" depart="104.80">
        <route edges="B2A2 A2A1 A1B1 B1B2 B2B3 B3A3 A3A2"/>
    </vehicle>
    <vehicle id="132" depart="105.60">
        <route edges="D0D1 D1D2 D2C2 C2C3"/>
    </vehicle>
    <vehicle id="133" depart="106.40">
        <route edges="C1C2 C2C3 C3D3 D3D2"/>
    </vehicle>
    <vehicle id="134" depart="107.20">
        <route edges="C2B2 B2B1 B1B0 B0A0 A0A1"/>
    </vehicle>
    <vehicle id="135" depart="108.00">
        <route edges="D0C0 C0C1 C1B1 B1B0"/>
    </vehicle>
    <vehicle id="136" depart="108.80">
        <route edges="C2B2 B2B3 B3C3 C3D3 D3D2 D2D1"/>
    </vehicle>
    <vehicle id="137" depart="109.60">
        <route edges="A2B2 B2B1 B1A1 A1A2 A2A3"/>
    </vehicle>
    <vehicle id="138" depart="110.40">
        <route edges="A2A1 A1A0 A0B0 B0C0 C0D0"/>
    </vehicle>
    <vehicle id="139" depart="111.20">
        <route edges="B1A1 A1A2 A2B2 B2C2 C2C1 C1C0"/>
    </vehicle>
    <vehicle id="140" depart="112.00">
        <route edges="C2D2 D2D1 D1D0 D0C0 C0B0 B0A0"/>
    </vehicle>
    <vehicle id="141" depart="112.80">
        <route edges="C1D1 D1D2 D2C2 C2B2 B2B1 B1B0 B0C0"/>
    </vehicle>
    <vehicle id="142" depart="113.60">
        <route edges="B3C3 C3D3 D3D2 D2C2"/>
    </vehicle>
    <vehicle id="143" depart="114.40">
        <route edges="D1C1 C1C0 C0B0 B0A0 A0A1 A1B1"/>
    </vehicle>
    <vehicle id="144" depart="115.20">
        <route edges="B2C2 C2C1 C1B1 B1A1"/>
    </vehicle>
    <vehicle id="145" depart="116.00">
        <route edges="A0A1 A1A2 A2A3 A3B3 B3C3 C3C2"/>
    </vehicle>
    <vehicle id="146" depart="116.80">
        <route edges="C1D1 D1D2 D2C2 C2B2 B2B1 B1B0 B0C0"/>
    </vehicle>
    <vehicle id="147" depart="117.60">
        <route edges="C3B3 B3B2 B2B1 B1B0 B0C0 C0D0"/>
    </vehicle>
    <vehicle id="148" depart="118.40">
        <route edges="B2C2 C2C1 C1C0 C0B0 B0A0 A0A1"/>
    </vehicle>
    <vehicle id="149" depart="119.20">
        <route edges="A1B1 B1C1 C1D1 D1D0"/>
    </vehicle>
    <vehicle id="150" depart="120.00">
        <route edges="D2C2 C2C1 C1C0 C0D0"/>
    </vehicle>
    <vehicle id="151" depart="120.80">
        <route edges="D0D1 D1C1 C1B1"/>
    </vehicle>
    <vehicle id="152" depart="121.60">
        <route edges="A2B2 B2B1 B1A1 A1A2 A2A3"/>
    </vehicle>
    <vehicle id="153" depart="122.40">
        <route edges="B1B2 B2C2 C2C1 C1D1 D1D2"/>
    </vehicle>
    <vehicle id="154" depart="123.20">
        <route edges="C3D3 D3D2 D2D1 D1C1"/>
    </vehicle>
    <vehicle id="155" depart="124.00">
        <route edges="D1D2 D2C2 C2C1 C1C0 C0B0 B0A0"/>
    </vehicle>
    <vehicle id="156" depart="124.80">
        <route edges="B0C0 C0C1 C1C2 C2B2 B2A2 A2A1"/>
    </vehicle>
    <vehicle id="157" depart="125.60">
        <route edges="C3D3 D3D2 D2D1 D1D0"/>
    </vehicle>
    <vehicle id="158" depart="126.40">
        <route edges="B2C2 C2D2 D2D1 D1C1 C1C2"/>
    </vehicle>
    <vehicle id="159" depart="127.20">
        <route edges="A2B2 B2C2 C2D2 D2D1"/>
    </vehicle>
    <vehicle id="160" depart="128.00">
        <route edges="D1C1 C1C2 C2D2 D2D3 D3C3"/>
    </vehicle>
    <vehicle id="161" depart="128.80">
        <route edges="D0C0 C0C1 C1D1 D1D0"/>
    </vehicle>
    <vehicle id="162" depart="129.60">
        <route edges="A0B0 B0C0 C0C1 C1C2 C2C3 C3B3"/>
    </vehicle>
    <vehicle id="163" depart="130.40">
        <route edges="B1C1 C1C2 C2D2 D2D1"/>
    </vehicle>
    <vehicle id="164" depart="131.20">
        <route edges="D0C0 C0C1 C1C2 C2D2 D2D1 D1C1"/>
    </vehicle>
    <vehicle id="165" depart="132.00">
        <route edges="D0C0 C0B0 B0B1 B1A1"/>
    </vehicle>
    <vehicle id="166" depart="132.80">
        <route edges="C3D3 D3D2 D2C2 C2B2 B2A2 A2A1"/>
    </vehicle>
    <vehicle id="167" depart="133.60">
        <route edges="D1D0 D0C0 C0C1 C1C2 C2D2 D2D1 D1C1"/>
    </vehicle>
    <vehicle id="168" depart="134.40">
        <route edges="B0A0 A0A1 A1B1 B1C1 C1D1 D1D0 D0C0"/>
    </vehicle>
    <vehicle id="169" depart="135.20">
        <route edges="B3B2 B2B1 B1B0"/>
    </vehicle>
    <vehicle id="170" depart="136.00">
        <route edges="C3D3 D3D2 D2D1 D1D0 D0C0 C0B0 B0B1"/>
    </vehicle>
    <vehicle id="171" depart="136.80">
        <route edges="A0B0 B0B1 B1B2 B2A2 A2A3 A3B3"/>
    </vehicle>
    <vehicle id="172" depart="137.60">
        <route edges="B1C1 C1C2 C2D2 D2D1 D1C1"/>
    </vehicle>
    <vehicle id="173" depart="138.40">
        <route edges="D3C3 C3C2 C2C1 C1B1 B1A1"/>
    </vehicle>
    <vehicle id="174" depart="139.20">
        <route edges="C1D1 D1D2 D2C2 C2B2 B2B3"/>
    </vehicle>
    <vehicle id="175" depart="140.00">
        <route edges="D3C3 C3B3 B3B2 B2B1 B1B0 B0C0 C0C1"/>
    </vehicle>
    <vehicle id="176" depart="140.80">
        <route edges="D2D1 D1C1 C1B1 B1A1 A1A2 A2A3"/>
    </vehicle>
    <vehicle id="177" depart="141.60">
        <route edges="D3C3 C3C2 C2B2 B2A2 A2A3 A3B3"/>
    </vehicle>
    <vehicle id="178" depart="142.40">
        <route edges="D3C3 C3B3 B3B2 B2B1 B1B0 B0C0"/>
    </vehicle>
    <vehicle id="179" depart="143.20">
        <route edges="A2A1 A1B1 B1B2 B2B3 B3A3"/>
    </vehicle>
    <vehicle id="180" depart="144.00">
        <route edges="C2D2 D2D1 D1C1 C1B1 B1B2"/>
    </vehicle>
    <vehicle id="181" depart="144.80">
        <route edges="C1C0 C0B0"/>
    </vehicle>
    <vehicle id="182" depart="145.60">
        <route edges="B2B1 B1B0 B0C0 C0C1 C1B1"/>
    </vehicle>
    <vehicle id="183" depart="146.40">
        <route edges="B0C0 C0C1 C1C2 C2D2"/>
    </vehicle>
    <vehicle id="184" depart="147.20">
        <route edges="A0A1 A1B1 B1C1 C1D1 D1D2 D2C2"/>
    </vehicle>
    <vehicle id="185" depart="148.00">
        <route edges="C0C1 C1C2 C2D2"/>
    </vehicle>
    <vehicle id="186" depart="148.80">
        <route edges="C3B3 B3B2 B2B1 B1C1 C1C2 C2B2"/>
    </vehicle>
    <vehicle id="187" depart="149.60">
        <route edges="B2A2 A2A3 A3B3 B3B2 B2B1 B1A1 A1A2"/>
    </vehicle>
    <vehicle id="188" depart="150.40">
        <route edges="C2B2 B2B1 B1C1"/>
    </vehicle>
    <vehicle id="189" depart="151.20">
        <route edges="B1B2 B2C2 C2D2 D2D1 D1C1"/>
    </vehicle>
    <vehicle id="190" depart="152.00">
        <route edges="C2D2 D2D1 D1C1 C1B1 B1B0"/>
    </vehicle>
    <vehicle id="191" depart="152.80">
        <route edges="B1B2 B2C2"/>
    </vehicle>
    <vehicle id="192" depart="153.60">
        <route edges="B2B3 B3C3 C3C2 C2C1 C1B1 B1B0"/>
    </vehicle>
    <vehicle id="193" depart="154.40">
        <route edges="A2A3 A3B3 B3B2 B2C2"/>
    </vehicle>
    <vehicle id="194" depart="155.20">
        <route edges="D2D1 D1C1 C1C2 C2B2"/>
    </vehicle>
    <vehicle id="195" depart="156.00">
        <route edges="D2C2 C2B2 B2B1 B1C1 C1C2"/>
    </vehicle>
    <vehicle id="196" depart="156.80">
        <route edges="B1B0 B0C0 C0D0"/>
    </vehicle>
    <vehicle id="197" depart="157.60">
        <route edges="A0A1 A1A2 A2B2 B2B1 B1A1"/>
    </vehicle>
    <vehicle id="198" depart="158.40">
        <route edges="B2C2 C2C1 C1B1"/>
    </vehicle>
    <vehicle id="199" depart="159.20">
        <route edges="C2B2 B2A2 A2A3 A3B3 B3B2"/>
    </vehicle>
    <vehicle id="200" depart="160.00">
        <route edges="B3A3 A3A2 A2A1 A1B1 B1B0 B0A0"/>
    </vehicle>
    <vehicle id="201" depart="160.80">
        <route edges="B3B2 B2B1 B1C1 C1D1 D1D2 D2C2"/>
    </vehicle>
    <vehicle id="202" depart="161.60">
        <route edges="C3D3 D3D2 D2C2 C2C3 C3B3 B3A3 A3A2"/>
    </vehicle>
    <vehicle id="203" depart="162.40">
        <route edges="A1B1 B1C1 C1C0 C0B0"/>
    </vehicle>
    <vehicle id="204" depart="163.20">
        <route edges="C1D1 D1D0 D0C0 C0B0 B0B1 B1C1"/>
    </vehicle>
    <vehicle id="205" depart="164.00">
        <route edges="D0C0 C0C1 C1C2 C2C3 C3B3"/>
    </vehicle>
    <vehicle id="206" depart="164.80">
        <route edges="C2B2 B2B1 B1B0 B0A0"/>
    </vehicle>
    <vehicle id="207" depart="165.60">
        <route edges="B0A0 A0A1 A1A2 A2B2 B2B1 B1A1 A1A0 A0B0"/>
    </vehicle>
    <vehicle id="208" depart="166.40">
        <route edges="B0C0 C0C1 C1C2 C2B2 B2B3 B3C3"/>
    </vehicle>
    <vehicle id="209" depart="167.20">
        <route edges="D1C1 C1C0 C0B0 B0A0 A0A1 A1B1"/>
    </vehicle>
    <vehicle id="210" depart="168.00">
        <route edges="B2C2 C2C1 C1D1"/>
    </vehicle>
    <vehicle id="211" depart="168.80">
        <route edges="A3B3 B3B2 B2C2 C2C3"/>
    </vehicle>
    <vehicle id="212" depart="169.60">
        <route edges="B3C3 C3C2 C2C1 C1B1 B1B0 B0C0"/>
    </vehicle>
    <vehicle id="213" depart="170.40">
        <route edges="C2B2 B2B1 B1B0 B0A0 A0A1"/>
    </vehicle>
    <vehicle id="214" depart="171.20">
        <route edges="C3B3 B3B2 B2A2 A2A3 A3B3 B3C3 C3C2"/>
    </vehicle>
    <vehicle id="215" depart="172.00">
        <route edges="A2A1 A1B1 B1B2 B2C2"/>
    </vehicle>
    <vehicle id="216" depart="172.80">
        <route edges="A3B3 B3C3 C3C2 C2D2 D2D3 D3C3"/>
    </vehicle>
    <vehicle id="217" depart="173.60">
        <route edges="C0B0 B0B1 B1A1 A1A0"/>
    </vehicle>
    <vehicle id="218" depart="174.40">
        <route edges="B0C0 C0D0 D0D1 D1C1"/>
    </vehicle>
    <vehicle id="219" depart="175.20">
        <route edges="B3A3 A3A2 A2B2 B2B3 B3C3 C3D3"/>
    </vehicle>
    <vehicle id="220" depart="176.00">
        <route edges="C2B2 B2B3 B3C3 C3D3 D3D2"/>
    </vehicle>
    <vehicle id="221" depart="176.80">
        <route edges="C1C0 C0D0 D0D1 D1D2 D2D3"/>
    </vehicle>
    <vehicle id="222" depart="177.60">
        <route edges="D1D2 D2C2 C2B2 B2B1 B1C1 C1C2"/>
    </vehicle>
    <vehicle id="223" depart="178.40">
        <route edges="C2D2 D2D1 D1D0 D0C0 C0B0"/>
    </vehicle>
    <vehicle id="224" depart="179.20">
        <route edges="D0D1 D1C1 C1C0 C0D0"/>
    </vehicle>
    <vehicle id="225" depart="180.00">
        <route edges="D1D2 D2D3 D3C3 C3B3"/>
    </vehicle>
    <vehicle id="226" depart="180.80">
        <route edges="B3C3 C3C2 C2C1 C1B1 B1B0 B0C0"/>
    </vehicle>
    <vehicle id="227" depart="181.60">
        <route edges="B0C0 C0C1 C1D1"/>
    </vehicle>
    <vehicle id="228" depart="182.40">
        <route edges="C3C2 C2C1 C1C0 C0B0"/>
    </vehicle>
    <vehicle id="229" depart="183.20">
        <route edges="C1D1 D1D0 D0C0 C0B0 B0B1 B1A1"/>
    </vehicle>
    <vehicle id="230" depart="184.00">
        <route edges="A1B1 B1B2 B2C2 C2C1 C1B1 B1A1"/>
    </vehicle>
    <vehicle id="231" depart="184.80">
        <route edges="B1A1 A1A0 A0B0 B0B1 B1B2"/>
    </vehicle>
    <vehicle id="232" depart="185.60">
        <route edges="C0C1 C1B1 B1A1 A1A2 A2B2"/>
    </vehicle>
    <vehicle id="233" depart="186.40">
        <route edges="B0B1 B1C1 C1C2 C2C3"/>
    </vehicle>
    <vehicle id="234" depart="187.20">
        <route edges="C2C3 C3B3 B3B2 B2B1 B1A1 A1A2"/>
    </vehicle>
    <vehicle id="235" depart="188.00">
        <route edges="B2C2 C2C1 C1C0 C0D0"/>
    </vehicle>
    <vehicle id="236" depart="188.80">
        <route edges="B2C2 C2C1 C1C0 C0B0 B0A0"/>
    </vehicle>
    <vehicle id="237" depart="189.60">
        <route edges="B2C2 C2C3 C3D3 D3D2 D2C2"/>
    </vehicle>
    <vehicle id="238" depart="190.40">
        <route edges="C1B1 B1B2 B2C2 C2C3"/>
    </vehicle>
    <vehicle id="239" depart="191.20">
        <route edges="D1C1 C1B1 B1B2 B2B3 B3C3 C3C2"/>
    </vehicle>
    <vehicle id="240" depart="192.00">
        <route edges="B2B1 B1B0 B0A0 A0A1"/>
    </vehicle>
    <vehicle id="241" depart="192.80">
        <route edges="B2A2 A2A1 A1B1 B1C1 C1C2 C2C3 C3B3"/>
    </vehicle>
    <vehicle id="242" depart="193.60">
        <route edges="D1C1 C1C2 C2D2 D2D3"/>
    </vehicle>
    <vehicle id="243" depart="194.40">
        <route edges="B2C2 C2C3 C3B3"/>
    </vehicle>
    <vehicle id="244" depart="195.20">
        <route edges="C0D0 D0D1 D1C1 C1C0"/>
    </vehicle>
    <vehicle id="245" depart="196.00">
        <route edges="B0A0"/>
    </vehicle>
    <vehicle id="246" depart="196.80">
        <route edges="B3A3 A3A2 A2A1 A1A0 A0B0"/>
    </vehicle>
    <vehicle id="247" depart="197.60">
        <route edges="B1C1 C1D1 D1D2 D2C2 C2C1"/>
    </vehicle>
    <vehicle id="248" depart="198.40">
        <route edges="B2B3 B3A3 A3A2"/>
    </vehicle>
    <vehicle id="249" depart="199.20">
        <route edges="B3B2 B2A2 A2A3"/>
    </vehicle>
    <vehicle id="250" depart="200.00">
        <route edges="C1C2 C2B2 B2A2 A2A1 A1A0 A0B0"/>
    </vehicle>
    <vehicle id="251" depart="200.80">
        <route edges="B2B3 B3C3 C3C2 C2C1 C1C0 C0D0"/>
    </vehicle>
    <vehicle id="252" depart="201.60">
        <route edges="A0B0 B0B1 B1C1 C1D1"/>
    </vehicle>
    <vehicle id="253" depart="202.40">
        <route edges="A2B2 B2C2 C2C3 C3B3 B3B2"/>
    </vehicle>
    <vehicle id="254" depart="203.20">
        <route edges="A1A0 A0B0 B0C0 C0C1 C1C2 C2B2 B2B1"/>
    </vehicle>
    <vehicle id="255" depart="204.00">
        <route edges="B0A0 A0A1 A1B1 B1C1"/>
    </vehicle>
    <vehicle id="256" depart="204.80">
        <route edges="C3C2 C2B2 B2B1"/>
    </vehicle>
    <vehicle id="257" depart="205.60">
        <route edges="C3B3 B3B2 B2B1 B1B0 B0C0 C0D0 D0D1"/>
    </vehicle>
    <vehicle id="258" depart="206.40">
        <route edges="B0C0 C0C1 C1C2 C2B2 B2A2 A2A1 A1B1"/>
    </vehicle>
    <vehicle id="259" depart="207.20">
        <route edges="A0B0 B0C0 C0C1"/>
    </vehicle>
    <vehicle id="260" depart="208.00">
        <route edges="D3D2 D2C2 C2B2 B2A2"/>
    </vehicle>
    <vehicle id="261" depart="208.80">
        <route edges="C1D1 D1D2 D2C2 C2C3 C3D3"/>
    </vehicle>
    <vehicle id="262" depart="209.60">
        <route edges="C2B2 B2B1 B1C1 C1C2 C2C3 C3B3"/>
    </vehicle>
    <vehicle id="263" depart="210.40">
        <route edges="D2D3 D3C3 C3C2 C2C1 C1C0 C0B0 B0A0"/>
    </vehicle>
    <vehicle id="264" depart="211.20">
        <route edges="A0B0 B0B1 B1A1 A1A2 A2B2"/>
    </vehicle>
    <vehicle id="265" depart="212.00">
        <route edges="A2A3 A3B3 B3C3 C3C2 C2B2"/>
    </vehicle>
    <vehicle id="266" depart="212.80">
        <route edges="C0D0 D0D1 D1C1 C1C0 C0B0 B0A0"/>
    </vehicle>
    <vehicle id="267" depart="213.60">
        <route edges="C2C3 C3D3 D3D2 D2C2 C2B2 B2B3 B3C3 C3C2"/>
    </vehicle>
    <vehicle id="268" depart="214.40">
        <route edges="A3A2 A2A1 A1B1 B1C1 C1C0"/>
    </vehicle>
    <vehicle id="269" depart="215.20">
        <route edges="C3B3 B3B2 B2A2 A2A3"/>
    </vehicle>
    <vehicle id="270" depart="216.00">
        <route edges="D0C0 C0C1 C1C2 C2D2 D2D3 D3C3"/>
    </vehicle>
    <vehicle id="271" depart="216.80">
        <route edges="A2A1 A1A0 A0B0"/>
    </vehicle>
    <vehicle id="272" depart="217.60">
        <route edges="B1B2 B2B3 B3C3 C3C2 C2B2"/>
    </vehicle>
    <vehicle id="273" depart="218.40">
        <route edges="D3C3 C3C2 C2B2 B2B3"/>
    </vehicle>
    <vehicle id="274" depart="219.20">
        <route edges="C2D2 D2D1 D1D0 D0C0 C0B0 B0A0 A0A1 A1B1"/>
    </vehicle>
    <vehicle id="275" depart="220.00">
        <route edges="C2C1 C1D1"/>
    </vehicle>
    <vehicle id="276" depart="220.80">
        <route edges="A2A1 A1B1 B1B2 B2B3 B3C3 C3C2"/>
    </vehicle>
    <vehicle id="277" depart="221.60">
        <route edges="D1C1 C1C0"/>
    </vehicle>
    <vehicle id="278" depart="222.40">
        <route edges="A2A3 A3B3 B3C3 C3C2 C2D2 D2D3 D3C3"/>
    </vehicle>
    <vehicle id="279" depart="223.20">
        <route edges="C3D3 D3D2 D2C2 C2B2 B2B1 B1C1"/>
    </vehicle>
    <vehicle id="280" depart="224.00">
        <route edges="B2C2 C2C1 C1B1 B1B2 B2A2"/>
    </vehicle>
    <vehicle id="281" depart="224.80">
        <route edges="C0B0 B0B1 B1C1"/>
    </vehicle>
    <vehicle id="282" depart="225.60">
        <route edges="D1C1 C1C2 C2D2 D2D1 D1D0 D0C0"/>