<routes>
   <vType id="car"
   			vClass="passenger" length="5" accel="3.5" decel="2.2"
   			sigma="1.0" maxSpeed="10"/>

    <route id="route_0" edges="e2 e3 e4 e5" />
    <route id="route_1" edges="e5 e6 e7 e8 e1 e2 e3 e4" />
    <route id="route_2" edges="e6 e7 e8 e1" />

    <vehicle id="0" type="car" route="route_0" depart="0"/>
    <vehicle id="1" type="car" route="route_0" depart="3"/>
    <vehicle id="2" type="car" route="route_0" depart="6"/>
    <vehicle id="3" type="car" route="route_0" depart="9"/>
    <vehicle id="4" type="car" route="route_0" depart="12"/>

</routes>