<additional xmlns:xsi="http://www.w3.org/2001/XMLSchema-instance" xsi:noNamespaceSchemaLocation="http://sumo.dlr.de/xsd/additional_file.xsd">
    <laneAreaDetector file="e2output.xml" freq="60" speedThreshold="100" friendlyPos="x" id="e2det_A0A1_0" lane="A0A1_0" length="83.10000000000001" pos="0"/>
    <laneAreaDetector file="e2output.xml" freq="60" speedThreshold="100" friendlyPos="x" id="e2det_A0A1_1" lane="A0A1_1" length="83.10000000000001" pos="0"/>
    <laneAreaDetector file="e2output.xml" freq="60" speedThreshold="100" friendlyPos="x" id="e2det_A2A1_0" lane="A2A1_0" length="79.10000000000001" pos="0"/>
    <laneAreaDetector file="e2output.xml" freq="60" speedThreshold="100" friendlyPos="x" id="e2det_A2A1_1" lane="A2A1_1" length="79.10000000000001" pos="0"/>
    <laneAreaDetector file="e2output.xml" freq="60" speedThreshold="100" friendlyPos="x" id="e2det_B1A1_0" lane="B1A1_0" length="179.1" pos="0"/>
    <laneAreaDetector file="e2output.xml" freq="60" speedThreshold="100" friendlyPos="x" id="e2det_B1A1_1" lane="B1A1_1" length="179.1" pos="0"/>
    <laneAreaDetector file="e2output.xml" freq="60" speedThreshold="100" friendlyPos="x" id="e2det_A0B0_0" lane="A0B0_0" length="183.1" pos="0"/>
    <laneAreaDetector file="e2output.xml" freq="60" speedThreshold="100" friendlyPos="x" id="e2det_A0B0_1" lane="A0B0_1" length="183.1" pos="0"/>
    <laneAreaDetector file="e2output.xml" freq="60" speedThreshold="100" friendlyPos="x" id="e2det_B1B0_0" lane="B1B0_0" length="79.10000000000001" pos="0"/>
    <laneAreaDetector file="e2output.xml" freq="60" speedThreshold="100" friendlyPos="x" id="e2det_B1B0_1" lane="B1B0_1" length="79.10000000000001" pos="0"/>
    <laneAreaDetector file="e2output.xml" freq="60" speedThreshold="100" friendlyPos="x" id="e2det_C0B0_0" lane="C0B0_0" length="179.1" pos="0"/>
    <laneAreaDetector file="e2output.xml" freq="60" speedThreshold="100" friendlyPos="x" id="e2det_C0B0_1" lane="C0B0_1" length="179.1" pos="0"/>
    <laneAreaDetector file="e2output.xml" freq="60" speedThreshold="100" friendlyPos="x" id="e2det_A1A0_0" lane="A1A0_0" length="83.10000000000001" pos="0"/>
    <laneAreaDetector file="e2output.xml" freq="60" speedThreshold="100" friendlyPos="x" id="e2det_A1A0_1" lane="A1A0_1" length="83.10000000000001" pos="0"/>
    <laneAreaDetector file="e2output.xml" freq="60" speedThreshold="100" friendlyPos="x" id="e2det_B0A0_0" lane="B0A0_0" length="183.1" pos="0"/>
    <laneAreaDetector file="e2output.xml" freq="60" speedThreshold="100" friendlyPos="x" id="e2det_B0A0_1" lane="B0A0_1" length="183.1" pos="0"/>
    <laneAreaDetector file="e2output.xml" freq="60" speedThreshold="100" friendlyPos="x" id="e2det_A1A2_0" lane="A1A2_0" length="79.10000000000001" pos="0"/>
    <laneAreaDetector file="e2output.xml" freq="60" speedThreshold="100" friendlyPos="x" id="e2det_A1A2_1" lane="A1A2_1" length="79.10000000000001" pos="0"/>
    <laneAreaDetector file="e2output.xml" freq="60" speedThreshold="100" friendlyPos="x" id="e2det_A3A2_0" lane="A3A2_0" length="79.10000000000001" pos="0"/>
    <laneAreaDetector file="e2output.xml" freq="60" speedThreshold="100" friendlyPos="x" id="e2det_A3A2_1" lane="A3A2_1" length="79.10000000000001" pos="0"/>
    <laneAreaDetector file="e2output.xml" freq="60" speedThreshold="100" friendlyPos="x" id="e2det_B2A2_0" lane="B2A2_0" length="179.1" pos="0"/>
    <laneAreaDetector file="e2output.xml" freq="60" speedThreshold="100" friendlyPos="x" id="e2det_B2A2_1" lane="B2A2_1" length="179.1" pos="0"/>
    <laneAreaDetector file="e2output.xml" freq="60" speedThreshold="100" friendlyPos="x" id="e2det_A1B1_0" lane="A1B1_0" length="179.1" pos="0"/>
    <laneAreaDetector file="e2output.xml" freq="60" speedThreshold="100" friendlyPos="x" id="e2det_A1B1_1" lane="A1B1_1" length="179.1" pos="0"/>
    <laneAreaDetector file="e2output.xml" freq="60" speedThreshold="100" friendlyPos="x" id="e2det_B0B1_0" lane="B0B1_0" length="79.10000000000001" pos="0"/>
    <laneAreaDetector file="e2output.xml" freq="60" speedThreshold="100" friendlyPos="x" id="e2det_B0B1_1" lane="B0B1_1" length="79.10000000000001" pos="0"/>
    <laneAreaDetector file="e2output.xml" freq="60" speedThreshold="100" friendlyPos="x" id="e2det_B2B1_0" lane="B2B1_0" length="79.10000000000001" pos="0"/>
    <laneAreaDetector file="e2output.xml" freq="60" speedThreshold="100" friendlyPos="x" id="e2det_B2B1_1" lane="B2B1_1" length="79.10000000000001" pos="0"/>
    <laneAreaDetector file="e2output.xml" freq="60" speedThreshold="100" friendlyPos="x" id="e2det_C1B1_0" lane="C1B1_0" length="179.1" pos="0"/>
    <laneAreaDetector file="e2output.xml" freq="60" speedThreshold="100" friendlyPos="x" id="e2det_C1B1_1" lane="C1B1_1" length="179.1" pos="0"/>
    <laneAreaDetector file="e2output.xml" freq="60" speedThreshold="100" friendlyPos="x" id="e2det_A2A3_0" lane="A2A3_0" length="79.10000000000001" pos="0"/>
    <laneAreaDetector file="e2output.xml" freq="60" speedThreshold="100" friendlyPos="x" id="e2det_A2A3_1" lane="A2A3_1" length="79.10000000000001" pos="0"/>
    <laneAreaDetector file="e2output.xml" freq="60" speedThreshold="100" friendlyPos="x" id="e2det_A4A3_0" lane="A4A3_0" length="79.10000000000001" pos="0"/>
    <laneAreaDetector file="e2output.xml" freq="60" speedThreshold="100" friendlyPos="x" id="e2det_A4A3_1" lane="A4A3_1" length="79.10000000000001" pos="0"/>
    <laneAreaDetector file="e2output.xml" freq="60" speedThreshold="100" friendlyPos="x" id="e2det_B3A3_0" lane="B3A3_0" length="179.1" pos="0"/>
    <laneAreaDetector file="e2output.xml" freq="60" speedThreshold="100" friendlyPos="x" id="e2det_B3A3_1" lane="B3A3_1" length="179.1" pos="0"/>
    <laneAreaDetector file="e2output.xml" freq="60" speedThreshold="100" friendlyPos="x" id="e2det_A2B2_0" lane="A2B2_0" length="179.1" pos="0"/>
    <laneAreaDetector file="e2output.xml" freq="60" speedThreshold="100" friendlyPos="x" id="e2det_A2B2_1" lane="A2B2_1" length="179.1" pos="0"/>
    <laneAreaDetector file="e2output.xml" freq="60" speedThreshold="100" friendlyPos="x" id="e2det_B1B2_0" lane="B1B2_0" length="79.10000000000001" pos="0"/>
    <laneAreaDetector file="e2output.xml" freq="60" speedThreshold="100" friendlyPos="x" id="e2det_B1B2_1" lane="B1B2_1" length="79.10000000000001" pos="0"/>
    <laneAreaDetector file="e2output.xml" freq="60" speedThreshold="100" friendlyPos="x" id="e2det_B3B2_0" lane="B3B2_0" length="79.10000000000001" pos="0"/>
    <laneAreaDetector file="e2output.xml" freq="60" speedThreshold="100" friendlyPos="x" id="e2det_B3B2_1" lane="B3B2_1" length="79.10000000000001" pos="0"/>
    <laneAreaDetector file="e2output.xml" freq="60" speedThreshold="100" friendlyPos="x" id="e2det_C2B2_0" lane="C2B2_0" length="179.1" pos="0"/>
    <laneAreaDetector file="e2output.xml" freq="60" speedThreshold="100" friendlyPos="x" id="e2det_C2B2_1" lane="C2B2_1" length="179.1" pos="0"/>
    <laneAreaDetector file="e2output.xml" freq="60" speedThreshold="100" friendlyPos="x" id="e2det_A3A4_0" lane="A3A4_0" length="79.10000000000001" pos="0"/>
    <laneAreaDetector file="e2output.xml" freq="60" speedThreshold="100" friendlyPos="x" id="e2det_A3A4_1" lane="A3A4_1" length="79.10000000000001" pos="0"/>
    <laneAreaDetector file="e2output.xml" freq="60" speedThreshold="100" friendlyPos="x" id="e2det_A5A4_0" lane="A5A4_0" length="83.10000000000001" pos="0"/>
    <laneAreaDetector file="e2output.xml" freq="60" speedThreshold="100" friendlyPos="x" id="e2det_A5A4_1" lane="A5A4_1" length="83.10000000000001" pos="0"/>
    <laneAreaDetector file="e2output.xml" freq="60" speedThreshold="100" friendlyPos="x" id="e2det_B4A4_0" lane="B4A4_0" length="179.1" pos="0"/>
    <laneAreaDetector file="e2output.xml" freq="60" speedThreshold="100" friendlyPos="x" id="e2det_B4A4_1" lane="B4A4_1" length="179.1" pos="0"/>
    <laneAreaDetector file="e2output.xml" freq="60" speedThreshold="100" friendlyPos="x" id="e2det_A3B3_0" lane="A3B3_0" length="179.1" pos="0"/>
    <laneAreaDetector file="e2output.xml" freq="60" speedThreshold="100" friendlyPos="x" id="e2det_A3B3_1" lane="A3B3_1" length="179.1" pos="0"/>
    <laneAreaDetector file="e2output.xml" freq="60" speedThreshold="100" friendlyPos="x" id="e2det_B2B3_0" lane="B2B3_0" length="79.10000000000001" pos="0"/>
    <laneAreaDetector file="e2output.xml" freq="60" speedThreshold="100" friendlyPos="x" id="e2det_B2B3_1" lane="B2B3_1" length="79.10000000000001" pos="0"/>
    <laneAreaDetector file="e2output.xml" freq="60" speedThreshold="100" friendlyPos="x" id="e2det_B4B3_0" lane="B4B3_0" length="79.10000000000001" pos="0"/>
    <laneAreaDetector file="e2output.xml" freq="60" speedThreshold="100" friendlyPos="x" id="e2det_B4B3_1" lane="B4B3_1" length="79.10000000000001" pos="0"/>
    <laneAreaDetector file="e2output.xml" freq="60" speedThreshold="100" friendlyPos="x" id="e2det_C3B3_0" lane="C3B3_0" length="179.1" pos="0"/>
    <laneAreaDetector file="e2output.xml" freq="60" speedThreshold="100" friendlyPos="x" id="e2det_C3B3_1" lane="C3B3_1" length="179.1" pos="0"/>
    <laneAreaDetector file="e2output.xml" freq="60" speedThreshold="100" friendlyPos="x" id="e2det_A4A5_0" lane="A4A5_0" length="83.10000000000001" pos="0"/>
    <laneAreaDetector file="e2output.xml" freq="60" speedThreshold="100" friendlyPos="x" id="e2det_A4A5_1" lane="A4A5_1" length="83.10000000000001" pos="0"/>
    <laneAreaDetector file="e2output.xml" freq="60" speedThreshold="100" friendlyPos="x" id="e2det_B5A5_0" lane="B5A5_0" length="183.1" pos="0"/>
    <laneAreaDetector file="e2output.xml" freq="60" speedThreshold="100" friendlyPos="x" id="e2det_B5A5_1" lane="B5A5_1" length="183.1" pos="0"/>
    <laneAreaDetector file="e2output.xml" freq="60" speedThreshold="100" friendlyPos="x" id="e2det_A4B4_0" lane="A4B4_0" length="179.1" pos="0"/>
    <laneAreaDetector file="e2output.xml" freq="60" speedThreshold="100" friendlyPos="x" id="e2det_A4B4_1" lane="A4B4_1" length="179.1" pos="0"/>
    <laneAreaDetector file="e2output.xml" freq="60" speedThreshold="100" friendlyPos="x" id="e2det_B3B4_0" lane="B3B4_0" length="79.10000000000001" pos="0"/>
    <laneAreaDetector file="e2output.xml" freq="60" speedThreshold="100" friendlyPos="x" id="e2det_B3B4_1" lane="B3B4_1" length="79.10000000000001" pos="0"/>
    <laneAreaDetector file="e2output.xml" freq="60" speedThreshold="100" friendlyPos="x" id="e2det_B5B4_0" lane="B5B4_0" length="79.10000000000001" pos="0"/>
    <laneAreaDetector file="e2output.xml" freq="60" speedThreshold="100" friendlyPos="x" id="e2det_B5B4_1" lane="B5B4_1" length="79.10000000000001" pos="0"/>
    <laneAreaDetector file="e2output.xml" freq="60" speedThreshold="100" friendlyPos="x" id="e2det_C4B4_0" lane="C4B4_0" length="179.1" pos="0"/>
    <laneAreaDetector file="e2output.xml" freq="60" speedThreshold="100" friendlyPos="x" id="e2det_C4B4_1" lane="C4B4_1" length="179.1" pos="0"/>
    <laneAreaDetector file="e2output.xml" freq="60" speedThreshold="100" friendlyPos="x" id="e2det_A5B5_0" lane="A5B5_0" length="183.1" pos="0"/>
    <laneAreaDetector file="e2output.xml" freq="60" speedThreshold="100" friendlyPos="x" id="e2det_A5B5_1" lane="A5B5_1" length="183.1" pos="0"/>
    <laneAreaDetector file="e2output.xml" freq="60" speedThreshold="100" friendlyPos="x" id="e2det_B4B5_0" lane="B4B5_0" length="79.10000000000001" pos="0"/>
    <laneAreaDetector file="e2output.xml" freq="60" speedThreshold="100" friendlyPos="x" id="e2det_B4B5_1" lane="B4B5_1" length="79.10000000000001" pos="0"/>
    <laneAreaDetector file="e2output.xml" freq="60" speedThreshold="100" friendlyPos="x" id="e2det_C5B5_0" lane="C5B5_0" length="179.1" pos="0"/>
    <laneAreaDetector file="e2output.xml" freq="60" speedThreshold="100" friendlyPos="x" id="e2det_C5B5_1" lane="C5B5_1" length="179.1" pos="0"/>
    <laneAreaDetector file="e2output.xml" freq="60" speedThreshold="100" friendlyPos="x" id="e2det_B0C0_0" lane="B0C0_0" length="179.1" pos="0"/>
    <laneAreaDetector file="e2output.xml" freq="60" speedThreshold="100" friendlyPos="x" id="e2det_B0C0_1" lane="B0C0_1" length="179.1" pos="0"/>
    <laneAreaDetector file="e2output.xml" freq="60" speedThreshold="100" friendlyPos="x" id="e2det_C1C0_0" lane="C1C0_0" length="79.10000000000001" pos="0"/>
    <laneAreaDetector file="e2output.xml" freq="60" speedThreshold="100" friendlyPos="x" id="e2det_C1C0_1" lane="C1C0_1" length="79.10000000000001" pos="0"/>
    <laneAreaDetector file="e2output.xml" freq="60" speedThreshold="100" friendlyPos="x" id="e2det_D0C0_0" lane="D0C0_0" length="179.1" pos="0"/>
    <laneAreaDetector file="e2output.xml" freq="60" speedThreshold="100" friendlyPos="x" id="e2det_D0C0_1" lane="D0C0_1" length="179.1" pos="0"/>
    <laneAreaDetector file="e2output.xml" freq="60" speedThreshold="100" friendlyPos="x" id="e2det_B1C1_0" lane="B1C1_0" length="179.1" pos="0"/>
    <laneAreaDetector file="e2output.xml" freq="60" speedThreshold="100" friendlyPos="x" id="e2det_B1C1_1" lane="B1C1_1" length="179.1" pos="0"/>
    <laneAreaDetector file="e2output.xml" freq="60" speedThreshold="100" friendlyPos="x" id="e2det_C0C1_0" lane="C0C1_0" length="79.10000000000001" pos="0"/>
    <laneAreaDetector file="e2output.xml" freq="60" speedThreshold="100" friendlyPos="x" id="e2det_C0C1_1" lane="C0C1_1" length="79.10000000000001" pos="0"/>
    <laneAreaDetector file="e2output.xml" freq="60" speedThreshold="100" friendlyPos="x" id="e2det_C2C1_0" lane="C2C1_0" length="79.10000000000001" pos="0"/>
    <laneAreaDetector file="e2output.xml" freq="60" speedThreshold="100" friendlyPos="x" id="e2det_C2C1_1" lane="C2C1_1" length="79.10000000000001" pos="0"/>
    <laneAreaDetector file="e2output.xml" freq="60" speedThreshold="100" friendlyPos="x" id="e2det_D1C1_0" lane="D1C1_0" length="179.1" pos="0"/>
    <laneAreaDetector file="e2output.xml" freq="60" speedThreshold="100" friendlyPos="x" id="e2det_D1C1_1" lane="D1C1_1" length="179.1" pos="0"/>
    <laneAreaDetector file="e2output.xml" freq="60" speedThreshold="100" friendlyPos="x" id="e2det_B2C2_0" lane="B2C2_0" length="179.1" pos="0"/>
    <laneAreaDetector file="e2output.xml" freq="60" speedThreshold="100" friendlyPos="x" id="e2det_B2C2_1" lane="B2C2_1" length="179.1" pos="0"/>
    <laneAreaDetector file="e2output.xml" freq="60" speedThreshold="100" friendlyPos="x" id="e2det_C1C2_0" lane="C1C2_0" length="79.10000000000001" pos="0"/>
    <laneAreaDetector file="e2output.xml" freq="60" speedThreshold="100" friendlyPos="x" id="e2det_C1C2_1" lane="C1C2_1" length="79.10000000000001" pos="0"/>
    <laneAreaDetector file="e2output.xml" freq="60" speedThreshold="100" friendlyPos="x" id="e2det_C3C2_0" lane="C3C2_0" length="79.10000000000001" pos="0"/>
    <laneAreaDetector file="e2output.xml" freq="60" speedThreshold="100" friendlyPos="x" id="e2det_C3C2_1" lane="C3C2_1" length="79.10000000000001" pos="0"/>
    <laneAreaDetector file="e2output.xml" freq="60" speedThreshold="100" friendlyPos="x" id="e2det_D2C2_0" lane="D2C2_0" length="179.1" pos="0"/>
    <laneAreaDetector file="e2output.xml" freq="60" speedThreshold="100" friendlyPos="x" id="e2det_D2C2_1" lane="D2C2_1" length="179.1" pos="0"/>
    <laneAreaDetector file="e2output.xml" freq="60" speedThreshold="100" friendlyPos="x" id="e2det_B3C3_0" lane="B3C3_0" length="179.1" pos="0"/>
    <laneAreaDetector file="e2output.xml" freq="60" speedThreshold="100" friendlyPos="x" id="e2det_B3C3_1" lane="B3C3_1" length="179.1" pos="0"/>
    <laneAreaDetector file="e2output.xml" freq="60" speedThreshold="100" friendlyPos="x" id="e2det_C2C3_0" lane="C2C3_0" length="79.10000000000001" pos="0"/>
    <laneAreaDetector file="e2output.xml" freq="60" speedThreshold="100" friendlyPos="x" id="e2det_C2C3_1" lane="C2C3_1" length="79.10000000000001" pos="0"/>
    <laneAreaDetector file="e2output.xml" freq="60" speedThreshold="100" friendlyPos="x" id="e2det_C4C3_0" lane="C4C3_0" length="79.10000000000001" pos="0"/>
    <laneAreaDetector file="e2output.xml" freq="60" speedThreshold="100" friendlyPos="x" id="e2det_C4C3_1" lane="C4C3_1" length="79.10000000000001" pos="0"/>
    <laneAreaDetector file="e2output.xml" freq="60" speedThreshold="100" friendlyPos="x" id="e2det_D3C3_0" lane="D3C3_0" length="179.1" pos="0"/>
    <laneAreaDetector file="e2output.xml" freq="60" speedThreshold="100" friendlyPos="x" id="e2det_D3C3_1" lane="D3C3_1" length="179.1" pos="0"/>
    <laneAreaDetector file="e2output.xml" freq="60" speedThreshold="100" friendlyPos="x" id="e2det_B4C4_0" lane="B4C4_0" length="179.1" pos="0"/>
    <laneAreaDetector file="e2output.xml" freq="60" speedThreshold="100" friendlyPos="x" id="e2det_B4C4_1" lane="B4C4_1" length="179.1" pos="0"/>
    <laneAreaDetector file="e2output.xml" freq="60" speedThreshold="100" friendlyPos="x" id="e2det_C3C4_0" lane="C3C4_0" length="79.10000000000001" pos="0"/>
    <laneAreaDetector file="e2output.xml" freq="60" speedThreshold="100" friendlyPos="x" id="e2det_C3C4_1" lane="C3C4_1" length="79.10000000000001" pos="0"/>
    <laneAreaDetector file="e2output.xml" freq="60" speedThreshold="100" friendlyPos="x" id="e2det_C5C4_0" lane="C5C4_0" length="79.10000000000001" pos="0"/>
    <laneAreaDetector file="e2output.xml" freq="60" speedThreshold="100" friendlyPos="x" id="e2det_C5C4_1" lane="C5C4_1" length="79.10000000000001" pos="0"/>
    <laneAreaDetector file="e2output.xml" freq="60" speedThreshold="100" friendlyPos="x" id="e2det_D4C4_0" lane="D4C4_0" length="179.1" pos="0"/>
    <laneAreaDetector file="e2output.xml" freq="60" speedThreshold="100" friendlyPos="x" id="e2det_D4C4_1" lane="D4C4_1" length="179.1" pos="0"/>
    <laneAreaDetector file="e2output.xml" freq="60" speedThreshold="100" friendlyPos="x" id="e2det_B5C5_0" lane="B5C5_0" length="179.1" pos="0"/>
    <laneAreaDetector file="e2output.xml" freq="60" speedThreshold="100" friendlyPos="x" id="e2det_B5C5_1" lane="B5C5_1" length="179.1" pos="0"/>
    <laneAreaDetector file="e2output.xml" freq="60" speedThreshold="100" friendlyPos="x" id="e2det_C4C5_0" lane="C4C5_0" length="79.10000000000001" pos="0"/>
    <laneAreaDetector file="e2output.xml" freq="60" speedThreshold="100" friendlyPos="x" id="e2det_C4C5_1" lane="C4C5_1" length="79.10000000000001" pos="0"/>
    <laneAreaDetector file="e2output.xml" freq="60" speedThreshold="100" friendlyPos="x" id="e2det_D5C5_0" lane="D5C5_0" length="179.1" pos="0"/>
    <laneAreaDetector file="e2output.xml" freq="60" speedThreshold="100" friendlyPos="x" id="e2det_D5C5_1" lane="D5C5_1" length="179.1" pos="0"/>
    <laneAreaDetector file="e2output.xml" freq="60" speedThreshold="100" friendlyPos="x" id="e2det_C0D0_0" lane="C0D0_0" length="179.1" pos="0"/>
    <laneAreaDetector file="e2output.xml" freq="60" speedThreshold="100" friendlyPos="x" id="e2det_C0D0_1" lane="C0D0_1" length="179.1" pos="0"/>
    <laneAreaDetector file="e2output.xml" freq="60" speedThreshold="100" friendlyPos="x" id="e2det_D1D0_0" lane="D1D0_0" length="79.10000000000001" pos="0"/>
    <laneAreaDetector file="e2output.xml" freq="60" speedThreshold="100" friendlyPos="x" id="e2det_D1D0_1" lane="D1D0_1" length="79.10000000000001" pos="0"/>
    <laneAreaDetector file="e2output.xml" freq="60" speedThreshold="100" friendlyPos="x" id="e2det_E0D0_0" lane="E0D0_0" length="179.1" pos="0"/>
    <laneAreaDetector file="e2output.xml" freq="60" speedThreshold="100" friendlyPos="x" id="e2det_E0D0_1" lane="E0D0_1" length="179.1" pos="0"/>
    <laneAreaDetector file="e2output.xml" freq="60" speedThreshold="100" friendlyPos="x" id="e2det_C1D1_0" lane="C1D1_0" length="179.1" pos="0"/>
    <laneAreaDetector file="e2output.xml" freq="60" speedThreshold="100" friendlyPos="x" id="e2det_C1D1_1" lane="C1D1_1" length="179.1" pos="0"/>
    <laneAreaDetector file="e2output.xml" freq="60" speedThreshold="100" friendlyPos="x" id="e2det_D0D1_0" lane="D0D1_0" length="79.10000000000001" pos="0"/>
    <laneAreaDetector file="e2output.xml" freq="60" speedThreshold="100" friendlyPos="x" id="e2det_D0D1_1" lane="D0D1_1" length="79.10000000000001" pos="0"/>
    <laneAreaDetector file="e2output.xml" freq="60" speedThreshold="100" friendlyPos="x" id="e2det_D2D1_0" lane="D2D1_0" length="79.10000000000001" pos="0"/>
    <laneAreaDetector file="e2output.xml" freq="60" speedThreshold="100" friendlyPos="x" id="e2det_D2D1_1" lane="D2D1_1" length="79.10000000000001" pos="0"/>
    <laneAreaDetector file="e2output.xml" freq="60" speedThreshold="100" friendlyPos="x" id="e2det_E1D1_0" lane="E1D1_0" length="179.1" pos="0"/>
    <laneAreaDetector file="e2output.xml" freq="60" speedThreshold="100" friendlyPos="x" id="e2det_E1D1_1" lane="E1D1_1" length="179.1" pos="0"/>
    <laneAreaDetector file="e2output.xml" freq="60" speedThreshold="100" friendlyPos="x" id="e2det_C2D2_0" lane="C2D2_0" length="179.1" pos="0"/>
    <laneAreaDetector file="e2output.xml" freq="60" speedThreshold="100" friendlyPos="x" id="e2det_C2D2_1" lane="C2D2_1" length="179.1" pos="0"/>
    <laneAreaDetector file="e2output.xml" freq="60" speedThreshold="100" friendlyPos="x" id="e2det_D1D2_0" lane="D1D2_0" length="79.10000000000001" pos="0"/>
    <laneAreaDetector file="e2output.xml" freq="60" speedThreshold="100" friendlyPos="x" id="e2det_D1D2_1" lane="D1D2_1" length="79.10000000000001" pos="0"/>
    <laneAreaDetector file="e2output.xml" freq="60" speedThreshold="100" friendlyPos="x" id="e2det_D3D2_0" lane="D3D2_0" length="79.10000000000001" pos="0"/>
    <laneAreaDetector file="e2output.xml" freq="60" speedThreshold="100" friendlyPos="x" id="e2det_D3D2_1" lane="D3D2_1" length="79.10000000000001" pos="0"/>
    <laneAreaDetector file="e2output.xml" freq="60" speedThreshold="100" friendlyPos="x" id="e2det_E2D2_0" lane="E2D2_0" length="179.1" pos="0"/>
    <laneAreaDetector file="e2output.xml" freq="60" speedThreshold="100" friendlyPos="x" id="e2det_E2D2_1" lane="E2D2_1" length="179.1" pos="0"/>
    <laneAreaDetector file="e2output.xml" freq="60" speedThreshold="100" friendlyPos="x" id="e2det_C3D3_0" lane="C3D3_0" length="179.1" pos="0"/>
    <laneAreaDetector file="e2output.xml" freq="60" speedThreshold="100" friendlyPos="x" id="e2det_C3D3_1" lane="C3D3_1" length="179.1" pos="0"/>
    <laneAreaDetector file="e2output.xml" freq="60" speedThreshold="100" friendlyPos="x" id="e2det_D2D3_0" lane="D2D3_0" length="79.10000000000001" pos="0"/>
    <laneAreaDetector file="e2output.xml" freq="60" speedThreshold="100" friendlyPos="x" id="e2det_D2D3_1" lane="D2D3_1" length="79.10000000000001" pos="0"/>
    <laneAreaDetector file="e2output.xml" freq="60" speedThreshold="100" friendlyPos="x" id="e2det_D4D3_0" lane="D4D3_0" length="79.10000000000001" pos="0"/>
    <laneAreaDetector file="e2output.xml" freq="60" speedThreshold="100" friendlyPos="x" id="e2det_D4D3_1" lane="D4D3_1" length="79.10000000000001" pos="0"/>
    <laneAreaDetector file="e2output.xml" freq="60" speedThreshold="100" friendlyPos="x" id="e2det_E3D3_0" lane="E3D3_0" length="179.1" pos="0"/>
    <laneAreaDetector file="e2output.xml" freq="60" speedThreshold="100" friendlyPos="x" id="e2det_E3D3_1" lane="E3D3_1" length="179.1" pos="0"/>
    <laneAreaDetector file="e2output.xml" freq="60" speedThreshold="100" friendlyPos="x" id="e2det_C4D4_0" lane="C4D4_0" length="179.1" pos="0"/>
    <laneAreaDetector file="e2output.xml" freq="60" speedThreshold="100" friendlyPos="x" id="e2det_C4D4_1" lane="C4D4_1" length="179.1" pos="0"/>
    <laneAreaDetector file="e2output.xml" freq="60" speedThreshold="100" friendlyPos="x" id="e2det_D3D4_0" lane="D3D4_0" length="79.10000000000001" pos="0"/>
    <laneAreaDetector file="e2output.xml" freq="60" speedThreshold="100" friendlyPos="x" id="e2det_D3D4_1" lane="D3D4_1" length="79.10000000000001" pos="0"/>
    <laneAreaDetector file="e2output.xml" freq="60" speedThreshold="100" friendlyPos="x" id="e2det_D5D4_0" lane="D5D4_0" length="79.10000000000001" pos="0"/>
    <laneAreaDetector file="e2output.xml" freq="60" speedThreshold="100" friendlyPos="x" id="e2det_D5D4_1" lane="D5D4_1" length="79.10000000000001" pos="0"/>
    <laneAreaDetector file="e2output.xml" freq="60" speedThreshold="100" friendlyPos="x" id="e2det_E4D4_0" lane="E4D4_0" length="179.1" pos="0"/>
    <laneAreaDetector file="e2output.xml" freq="60" speedThreshold="100" friendlyPos="x" id="e2det_E4D4_1" lane="E4D4_1" length="179.1" pos="0"/>
    <laneAreaDetector file="e2output.xml" freq="60" speedThreshold="100" friendlyPos="x" id="e2det_C5D5_0" lane="C5D5_0" length="179.1" pos="0"/>
    <laneAreaDetector file="e2output.xml" freq="60" speedThreshold="100" friendlyPos="x" id="e2det_C5D5_1" lane="C5D5_1" length="179.1" pos="0"/>
    <laneAreaDetector file="e2output.xml" freq="60" speedThreshold="100" friendlyPos="x" id="e2det_D4D5_0" lane="D4D5_0" length="79.10000000000001" pos="0"/>
    <laneAreaDetector file="e2output.xml" freq="60" speedThreshold="100" friendlyPos="x" id="e2det_D4D5_1" lane="D4D5_1" length="79.10000000000001" pos="0"/>
    <laneAreaDetector file="e2output.xml" freq="60" speedThreshold="100" friendlyPos="x" id="e2det_E5D5_0" lane="E5D5_0" length="179.1" pos="0"/>
    <laneAreaDetector file="e2output.xml" freq="60" speedThreshold="100" friendlyPos="x" id="e2det_E5D5_1" lane="E5D5_1" length="179.1" pos="0"/>
    <laneAreaDetector file="e2output.xml" freq="60" speedThreshold="100" friendlyPos="x" id="e2det_D0E0_0" lane="D0E0_0" length="179.1" pos="0"/>
    <laneAreaDetector file="e2output.xml" freq="60" speedThreshold="100" friendlyPos="x" id="e2det_D0E0_1" lane="D0E0_1" length="179.1" pos="0"/>
    <laneAreaDetector file="e2output.xml" freq="60" speedThreshold="100" friendlyPos="x" id="e2det_E1E0_0" lane="E1E0_0" length="79.10000000000001" pos="0"/>
    <laneAreaDetector file="e2output.xml" freq="60" speedThreshold="100" friendlyPos="x" id="e2det_E1E0_1" lane="E1E0_1" length="79.10000000000001" pos="0"/>
    <laneAreaDetector file="e2output.xml" freq="60" speedThreshold="100" friendlyPos="x" id="e2det_F0E0_0" lane="F0E0_0" length="179.1" pos="0"/>
    <laneAreaDetector file="e2output.xml" freq="60" speedThreshold="100" friendlyPos="x" id="e2det_F0E0_1" lane="F0E0_1" length="179.1" pos="0"/>
    <laneAreaDetector file="e2output.xml" freq="60" speedThreshold="100" friendlyPos="x" id="e2det_D1E1_0" lane="D1E1_0" length="179.1" pos="0"/>
    <laneAreaDetector file="e2output.xml" freq="60" speedThreshold="100" friendlyPos="x" id="e2det_D1E1_1" lane="D1E1_1" length="179.1" pos="0"/>
    <laneAreaDetector file="e2output.xml" freq="60" speedThreshold="100" friendlyPos="x" id="e2det_E0E1_0" lane="E0E1_0" length="79.10000000000001" pos="0"/>
    <laneAreaDetector file="e2output.xml" freq="60" speedThreshold="100" friendlyPos="x" id="e2det_E0E1_1" lane="E0E1_1" length="79.10000000000001" pos="0"/>
    <laneAreaDetector file="e2output.xml" freq="60" speedThreshold="100" friendlyPos="x" id="e2det_E2E1_0" lane="E2E1_0" length="79.10000000000001" pos="0"/>
    <laneAreaDetector file="e2output.xml" freq="60" speedThreshold="100" friendlyPos="x" id="e2det_E2E1_1" lane="E2E1_1" length="79.10000000000001" pos="0"/>
    <laneAreaDetector file="e2output.xml" freq="60" speedThreshold="100" friendlyPos="x" id="e2det_F1E1_0" lane="F1E1_0" length="179.1" pos="0"/>
    <laneAreaDetector file="e2output.xml" freq="60" speedThreshold="100" friendlyPos="x" id="e2det_F1E1_1" lane="F1E1_1" length="179.1" pos="0"/>
    <laneAreaDetector file="e2output.xml" freq="60" speedThreshold="100" friendlyPos="x" id="e2det_D2E2_0" lane="D2E2_0" length="179.1" pos="0"/>
    <laneAreaDetector file="e2output.xml" freq="60" speedThreshold="100" friendlyPos="x" id="e2det_D2E2_1" lane="D2E2_1" length="179.1" pos="0"/>
    <laneAreaDetector file="e2output.xml" freq="60" speedThreshold="100" friendlyPos="x" id="e2det_E1E2_0" lane="E1E2_0" length="79.10000000000001" pos="0"/>
    <laneAreaDetector file="e2output.xml" freq="60" speedThreshold="100" friendlyPos="x" id="e2det_E1E2_1" lane="E1E2_1" length="79.10000000000001" pos="0"/>
    <laneAreaDetector file="e2output.xml" freq="60" speedThreshold="100" friendlyPos="x" id="e2det_E3E2_0" lane="E3E2_0" length="79.10000000000001" pos="0"/>
    <laneAreaDetector file="e2output.xml" freq="60" speedThreshold="100" friendlyPos="x" id="e2det_E3E2_1" lane="E3E2_1" length="79.10000000000001" pos="0"/>
    <laneAreaDetector file="e2output.xml" freq="60" speedThreshold="100" friendlyPos="x" id="e2det_F2E2_0" lane="F2E2_0" length="179.1" pos="0"/>
    <laneAreaDetector file="e2output.xml" freq="60" speedThreshold="100" friendlyPos="x" id="e2det_F2E2_1" lane="F2E2_1" length="179.1" pos="0"/>
    <laneAreaDetector file="e2output.xml" freq="60" speedThreshold="100" friendlyPos="x" id="e2det_D3E3_0" lane="D3E3_0" length="179.1" pos="0"/>
    <laneAreaDetector file="e2output.xml" freq="60" speedThreshold="100" friendlyPos="x" id="e2det_D3E3_1" lane="D3E3_1" length="179.1" pos="0"/>
    <laneAreaDetector file="e2output.xml" freq="60" speedThreshold="100" friendlyPos="x" id="e2det_E2E3_0" lane="E2E3_0" length="79.10000000000001" pos="0"/>
    <laneAreaDetector file="e2output.xml" freq="60" speedThreshold="100" friendlyPos="x" id="e2det_E2E3_1" lane="E2E3_1" length="79.10000000000001" pos="0"/>
    <laneAreaDetector file="e2output.xml" freq="60" speedThreshold="100" friendlyPos="x" id="e2det_E4E3_0" lane="E4E3_0" length="79.10000000000001" pos="0"/>
    <laneAreaDetector file="e2output.xml" freq="60" speedThreshold="100" friendlyPos="x" id="e2det_E4E3_1" lane="E4E3_1" length="79.10000000000001" pos="0"/>
    <laneAreaDetector file="e2output.xml" freq="60" speedThreshold="100" friendlyPos="x" id="e2det_F3E3_0" lane="F3E3_0" length="179.1" pos="0"/>
    <laneAreaDetector file="e2output.xml" freq="60" speedThreshold="100" friendlyPos="x" id="e2det_F3E3_1" lane="F3E3_1" length="179.1" pos="0"/>
    <laneAreaDetector file="e2output.xml" freq="60" speedThreshold="100" friendlyPos="x" id="e2det_D4E4_0" lane="D4E4_0" length="179.1" pos="0"/>
    <laneAreaDetector file="e2output.xml" freq="60" speedThreshold="100" friendlyPos="x" id="e2det_D4E4_1" lane="D4E4_1" length="179.1" pos="0"/>