<configuration>
    <input>
        <net-file value="u_grid.net.xml"/>
        <route-files value="grid.rou.xml"/>
        <additional-files value="grid.add.xml"/>
    </input>
</configuration>