<additional xmlns:xsi="http://www.w3.org/2001/XMLSchema-instance" xsi:noNamespaceSchemaLocation="http://sumo.dlr.de/xsd/additional_file.xsd">
    <laneAreaDetector file="e2output.xml" freq="60" speedThreshold="10" friendlyPos="x" id="e2det_0_10_-100_0" lane="-100_0" length="259.33333333333337" pos="0.0"/>
    <laneAreaDetector file="e2output.xml" freq="60" speedThreshold="20" friendlyPos="x" id="e2det_0_20_-100_0" lane="-100_0" length="259.33333333333337" pos="0.0"/>
    <laneAreaDetector file="e2output.xml" freq="60" speedThreshold="100" friendlyPos="x" id="e2det_0_100_-100_0" lane="-100_0" length="259.33333333333337" pos="0.0"/>
    <laneAreaDetector file="e2output.xml" freq="60" speedThreshold="10" friendlyPos="x" id="e2det_1_10_-100_0" lane="-100_0" length="259.33333333333337" pos="-259.6333333333334"/>
    <laneAreaDetector file="e2output.xml" freq="60" speedThreshold="20" friendlyPos="x" id="e2det_1_20_-100_0" lane="-100_0" length="259.33333333333337" pos="-259.6333333333334"/>
    <laneAreaDetector file="e2output.xml" freq="60" speedThreshold="100" friendlyPos="x" id="e2det_1_100_-100_0" lane="-100_0" length="259.33333333333337" pos="-259.6333333333334"/>
    <laneAreaDetector file="e2output.xml" freq="60" speedThreshold="10" friendlyPos="x" id="e2det_2_10_-100_0" lane="-100_0" length="259.33333333333337" pos="-519.2666666666668"/>
    <laneAreaDetector file="e2output.xml" freq="60" speedThreshold="20" friendlyPos="x" id="e2det_2_20_-100_0" lane="-100_0" length="259.33333333333337" pos="-519.2666666666668"/>
    <laneAreaDetector file="e2output.xml" freq="60" speedThreshold="100" friendlyPos="x" id="e2det_2_100_-100_0" lane="-100_0" length="259.33333333333337" pos="-519.2666666666668"/>
    <laneAreaDetector file="e2output.xml" freq="60" speedThreshold="10" friendlyPos="x" id="e2det_0_10_-100_1" lane="-100_1" length="259.33333333333337" pos="0.0"/>
    <laneAreaDetector file="e2output.xml" freq="60" speedThreshold="20" friendlyPos="x" id="e2det_0_20_-100_1" lane="-100_1" length="259.33333333333337" pos="0.0"/>
    <laneAreaDetector file="e2output.xml" freq="60" speedThreshold="100" friendlyPos="x" id="e2det_0_100_-100_1" lane="-100_1" length="259.33333333333337" pos="0.0"/>
    <laneAreaDetector file="e2output.xml" freq="60" speedThreshold="10" friendlyPos="x" id="e2det_1_10_-100_1" lane="-100_1" length="259.33333333333337" pos="-259.6333333333334"/>
    <laneAreaDetector file="e2output.xml" freq="60" speedThreshold="20" friendlyPos="x" id="e2det_1_20_-100_1" lane="-100_1" length="259.33333333333337" pos="-259.6333333333334"/>
    <laneAreaDetector file="e2output.xml" freq="60" speedThreshold="100" friendlyPos="x" id="e2det_1_100_-100_1" lane="-100_1" length="259.33333333333337" pos="-259.6333333333334"/>
    <laneAreaDetector file="e2output.xml" freq="60" speedThreshold="10" friendlyPos="x" id="e2det_2_10_-100_1" lane="-100_1" length="259.33333333333337" pos="-519.2666666666668"/>
    <laneAreaDetector file="e2output.xml" freq="60" speedThreshold="20" friendlyPos="x" id="e2det_2_20_-100_1" lane="-100_1" length="259.33333333333337" pos="-519.2666666666668"/>
    <laneAreaDetector file="e2output.xml" freq="60" speedThreshold="100" friendlyPos="x" id="e2det_2_100_-100_1" lane="-100_1" length="259.33333333333337" pos="-519.2666666666668"/>
    <laneAreaDetector file="e2output.xml" freq="60" speedThreshold="10" friendlyPos="x" id="e2det_0_10_-153_0" lane="-153_0" length="192.66666666666669" pos="0.0"/>
    <laneAreaDetector file="e2output.xml" freq="60" speedThreshold="20" friendlyPos="x" id="e2det_0_20_-153_0" lane="-153_0" length="192.66666666666669" pos="0.0"/>
    <laneAreaDetector file="e2output.xml" freq="60" speedThreshold="100" friendlyPos="x" id="e2det_0_100_-153_0" lane="-153_0" length="192.66666666666669" pos="0.0"/>
    <laneAreaDetector file="e2output.xml" freq="60" speedThreshold="10" friendlyPos="x" id="e2det_1_10_-153_0" lane="-153_0" length="192.66666666666669" pos="-192.9666666666667"/>
    <laneAreaDetector file="e2output.xml" freq="60" speedThreshold="20" friendlyPos="x" id="e2det_1_20_-153_0" lane="-153_0" length="192.66666666666669" pos="-192.9666666666667"/>
    <laneAreaDetector file="e2output.xml" freq="60" speedThreshold="100" friendlyPos="x" id="e2det_1_100_-153_0" lane="-153_0" length="192.66666666666669" pos="-192.9666666666667"/>
    <laneAreaDetector file="e2output.xml" freq="60" speedThreshold="10" friendlyPos="x" id="e2det_2_10_-153_0" lane="-153_0" length="192.66666666666669" pos="-385.9333333333334"/>
    <laneAreaDetector file="e2output.xml" freq="60" speedThreshold="20" friendlyPos="x" id="e2det_2_20_-153_0" lane="-153_0" length="192.66666666666669" pos="-385.9333333333334"/>
    <laneAreaDetector file="e2output.xml" freq="60" speedThreshold="100" friendlyPos="x" id="e2det_2_100_-153_0" lane="-153_0" length="192.66666666666669" pos="-385.9333333333334"/>
    <laneAreaDetector file="e2output.xml" freq="60" speedThreshold="10" friendlyPos="x" id="e2det_0_10_-153_1" lane="-153_1" length="192.66666666666669" pos="0.0"/>
    <laneAreaDetector file="e2output.xml" freq="60" speedThreshold="20" friendlyPos="x" id="e2det_0_20_-153_1" lane="-153_1" length="192.66666666666669" pos="0.0"/>
    <laneAreaDetector file="e2output.xml" freq="60" speedThreshold="100" friendlyPos="x" id="e2det_0_100_-153_1" lane="-153_1" length="192.66666666666669" pos="0.0"/>
    <laneAreaDetector file="e2output.xml" freq="60" speedThreshold="10" friendlyPos="x" id="e2det_1_10_-153_1" lane="-153_1" length="192.66666666666669" pos="-192.9666666666667"/>
    <laneAreaDetector file="e2output.xml" freq="60" speedThreshold="20" friendlyPos="x" id="e2det_1_20_-153_1" lane="-153_1" length="192.66666666666669" pos="-192.9666666666667"/>
    <laneAreaDetector file="e2output.xml" freq="60" speedThreshold="100" friendlyPos="x" id="e2det_1_100_-153_1" lane="-153_1" length="192.66666666666669" pos="-192.9666666666667"/>
    <laneAreaDetector file="e2output.xml" freq="60" speedThreshold="10" friendlyPos="x" id="e2det_2_10_-153_1" lane="-153_1" length="192.66666666666669" pos="-385.9333333333334"/>
    <laneAreaDetector file="e2output.xml" freq="60" speedThreshold="20" friendlyPos="x" id="e2det_2_20_-153_1" lane="-153_1" length="192.66666666666669" pos="-385.9333333333334"/>
    <laneAreaDetector file="e2output.xml" freq="60" speedThreshold="100" friendlyPos="x" id="e2det_2_100_-153_1" lane="-153_1" length="192.66666666666669" pos="-385.9333333333334"/>
    <laneAreaDetector file="e2output.xml" freq="60" speedThreshold="10" friendlyPos="x" id="e2det_0_10_23_0" lane="23_0" length="59.33333333333333" pos="1.1379786002407855e-14"/>
    <laneAreaDetector file="e2output.xml" freq="60" speedThreshold="20" friendlyPos="x" id="e2det_0_20_23_0" lane="23_0" length="59.33333333333333" pos="1.1379786002407855e-14"/>
    <laneAreaDetector file="e2output.xml" freq="60" speedThreshold="100" friendlyPos="x" id="e2det_0_100_23_0" lane="23_0" length="59.33333333333333" pos="1.1379786002407855e-14"/>
    <laneAreaDetector file="e2output.xml" freq="60" speedThreshold="10" friendlyPos="x" id="e2det_1_10_23_0" lane="23_0" length="59.33333333333333" pos="-59.63333333333331"/>
    <laneAreaDetector file="e2output.xml" freq="60" speedThreshold="20" friendlyPos="x" id="e2det_1_20_23_0" lane="23_0" length="59.33333333333333" pos="-59.63333333333331"/>
    <laneAreaDetector file="e2output.xml" freq="60" speedThreshold="100" friendlyPos="x" id="e2det_1_100_23_0" lane="23_0" length="59.33333333333333" pos="-59.63333333333331"/>
    <laneAreaDetector file="e2output.xml" freq="60" speedThreshold="10" friendlyPos="x" id="e2det_2_10_23_0" lane="23_0" length="59.33333333333333" pos="-119.26666666666664"/>
    <laneAreaDetector file="e2output.xml" freq="60" speedThreshold="20" friendlyPos="x" id="e2det_2_20_23_0" lane="23_0" length="59.33333333333333" pos="-119.26666666666664"/>
    <laneAreaDetector file="e2output.xml" freq="60" speedThreshold="100" friendlyPos="x" id="e2det_2_100_23_0" lane="23_0" length="59.33333333333333" pos="-119.26666666666664"/>
    <laneAreaDetector file="e2output.xml" freq="60" speedThreshold="10" friendlyPos="x" id="e2det_0_10_23_1" lane="23_1" length="59.33333333333333" pos="1.1379786002407855e-14"/>
    <laneAreaDetector file="e2output.xml" freq="60" speedThreshold="20" friendlyPos="x" id="e2det_0_20_23_1" lane="23_1" length="59.33333333333333" pos="1.1379786002407855e-14"/>
    <laneAreaDetector file="e2output.xml" freq="60" speedThreshold="100" friendlyPos="x" id="e2det_0_100_23_1" lane="23_1" length="59.33333333333333" pos="1.1379786002407855e-14"/>
    <laneAreaDetector file="e2output.xml" freq="60" speedThreshold="10" friendlyPos="x" id="e2det_1_10_23_1" lane="23_1" length="59.33333333333333" pos="-59.63333333333331"/>
    <laneAreaDetector file="e2output.xml" freq="60" speedThreshold="20" friendlyPos="x" id="e2det_1_20_23_1" lane="23_1" length="59.33333333333333" pos="-59.63333333333331"/>
    <laneAreaDetector file="e2output.xml" freq="60" speedThreshold="100" friendlyPos="x" id="e2det_1_100_23_1" lane="23_1" length="59.33333333333333" pos="-59.63333333333331"/>
    <laneAreaDetector file="e2output.xml" freq="60" speedThreshold="10" friendlyPos="x" id="e2det_2_10_23_1" lane="23_1" length="59.33333333333333" pos="-119.26666666666664"/>
    <laneAreaDetector file="e2output.xml" freq="60" speedThreshold="20" friendlyPos="x" id="e2det_2_20_23_1" lane="23_1" length="59.33333333333333" pos="-119.26666666666664"/>
    <laneAreaDetector file="e2output.xml" freq="60" speedThreshold="100" friendlyPos="x" id="e2det_2_100_23_1" lane="23_1" length="59.33333333333333" pos="-119.26666666666664"/>
    <laneAreaDetector file="e2output.xml" freq="60" speedThreshold="10" friendlyPos="x" id="e2det_0_10_-1021_0" lane="-1021_0" length="259.33333333333337" pos="0.0"/>
    <laneAreaDetector file="e2output.xml" freq="60" speedThreshold="20" friendlyPos="x" id="e2det_0_20_-1021_0" lane="-1021_0" length="259.33333333333337" pos="0.0"/>
    <laneAreaDetector file="e2output.xml" freq="60" speedThreshold="100" friendlyPos="x" id="e2det_0_100_-1021_0" lane="-1021_0" length="259.33333333333337" pos="0.0"/>
    <laneAreaDetector file="e2output.xml" freq="60" speedThreshold="10" friendlyPos="x" id="e2det_1_10_-1021_0" lane="-1021_0" length="259.33333333333337" pos="-259.6333333333334"/>
    <laneAreaDetector file="e2output.xml" freq="60" speedThreshold="20" friendlyPos="x" id="e2det_1_20_-1021_0" lane="-1021_0" length="259.33333333333337" pos="-259.6333333333334"/>
    <laneAreaDetector file="e2output.xml" freq="60" speedThreshold="100" friendlyPos="x" id="e2det_1_100_-1021_0" lane="-1021_0" length="259.33333333333337" pos="-259.6333333333334"/>
    <laneAreaDetector file="e2output.xml" freq="60" speedThreshold="10" friendlyPos="x" id="e2det_2_10_-1021_0" lane="-1021_0" length="259.33333333333337" pos="-519.2666666666668"/>
    <laneAreaDetector file="e2output.xml" freq="60" speedThreshold="20" friendlyPos="x" id="e2det_2_20_-1021_0" lane="-1021_0" length="259.33333333333337" pos="-519.2666666666668"/>
    <laneAreaDetector file="e2output.xml" freq="60" speedThreshold="100" friendlyPos="x" id="e2det_2_100_-1021_0" lane="-1021_0" length="259.33333333333337" pos="-519.2666666666668"/>
    <laneAreaDetector file="e2output.xml" freq="60" speedThreshold="10" friendlyPos="x" id="e2det_0_10_-1021_1" lane="-1021_1" length="259.33333333333337" pos="0.0"/>
    <laneAreaDetector file="e2output.xml" freq="60" speedThreshold="20" friendlyPos="x" id="e2det_0_20_-1021_1" lane="-1021_1" length="259.33333333333337" pos="0.0"/>
    <laneAreaDetector file="e2output.xml" freq="60" speedThreshold="100" friendlyPos="x" id="e2det_0_100_-1021_1" lane="-1021_1" length="259.33333333333337" pos="0.0"/>
    <laneAreaDetector file="e2output.xml" freq="60" speedThreshold="10" friendlyPos="x" id="e2det_1_10_-1021_1" lane="-1021_1" length="259.33333333333337" pos="-259.6333333333334"/>
    <laneAreaDetector file="e2output.xml" freq="60" speedThreshold="20" friendlyPos="x" id="e2det_1_20_-1021_1" lane="-1021_1" length="259.33333333333337" pos="-259.6333333333334"/>
    <laneAreaDetector file="e2output.xml" freq="60" speedThreshold="100" friendlyPos="x" id="e2det_1_100_-1021_1" lane="-1021_1" length="259.33333333333337" pos="-259.6333333333334"/>
    <laneAreaDetector file="e2output.xml" freq="60" speedThreshold="10" friendlyPos="x" id="e2det_2_10_-1021_1" lane="-1021_1" length="259.33333333333337" pos="-519.2666666666668"/>
    <laneAreaDetector file="e2output.xml" freq="60" speedThreshold="20" friendlyPos="x" id="e2det_2_20_-1021_1" lane="-1021_1" length="259.33333333333337" pos="-519.2666666666668"/>
    <laneAreaDetector file="e2output.xml" freq="60" speedThreshold="100" friendlyPos="x" id="e2det_2_100_-1021_1" lane="-1021_1" length="259.33333333333337" pos="-519.2666666666668"/>
    <laneAreaDetector file="e2output.xml" freq="60" speedThreshold="10" friendlyPos="x" id="e2det_0_10_-1025_0" lane="-1025_0" length="191.34666666666666" pos="0.0"/>
    <laneAreaDetector file="e2output.xml" freq="60" speedThreshold="20" friendlyPos="x" id="e2det_0_20_-1025_0" lane="-1025_0" length="191.34666666666666" pos="0.0"/>
    <laneAreaDetector file="e2output.xml" freq="60" speedThreshold="100" friendlyPos="x" id="e2det_0_100_-1025_0" lane="-1025_0" length="191.34666666666666" pos="0.0"/>
    <laneAreaDetector file="e2output.xml" freq="60" speedThreshold="10" friendlyPos="x" id="e2det_1_10_-1025_0" lane="-1025_0" length="191.34666666666666" pos="-191.64666666666668"/>
    <laneAreaDetector file="e2output.xml" freq="60" speedThreshold="20" friendlyPos="x" id="e2det_1_20_-1025_0" lane="-1025_0" length="191.34666666666666" pos="-191.64666666666668"/>
    <laneAreaDetector file="e2output.xml" freq="60" speedThreshold="100" friendlyPos="x" id="e2det_1_100_-1025_0" lane="-1025_0" length="191.34666666666666" pos="-191.64666666666668"/>
    <laneAreaDetector file="e2output.xml" freq="60" speedThreshold="10" friendlyPos="x" id="e2det_2_10_-1025_0" lane="-1025_0" length="191.34666666666666" pos="-383.29333333333335"/>
    <laneAreaDetector file="e2output.xml" freq="60" speedThreshold="20" friendlyPos="x" id="e2det_2_20_-1025_0" lane="-1025_0" length="191.34666666666666" pos="-383.29333333333335"/>
    <laneAreaDetector file="e2output.xml" freq="60" speedThreshold="100" friendlyPos="x" id="e2det_2_100_-1025_0" lane="-1025_0" length="191.34666666666666" pos="-383.29333333333335"/>
    <laneAreaDetector file="e2output.xml" freq="60" speedThreshold="10" friendlyPos="x" id="e2det_0_10_-1025_1" lane="-1025_1" length="191.34666666666666" pos="0.0"/>
    <laneAreaDetector file="e2output.xml" freq="60" speedThreshold="20" friendlyPos="x" id="e2det_0_20_-1025_1" lane="-1025_1" length="191.34666666666666" pos="0.0"/>
    <laneAreaDetector file="e2output.xml" freq="60" speedThreshold="100" friendlyPos="x" id="e2det_0_100_-1025_1" lane="-1025_1" length="191.34666666666666" pos="0.0"/>
    <laneAreaDetector file="e2output.xml" freq="60" speedThreshold="10" friendlyPos="x" id="e2det_1_10_-1025_1" lane="-1025_1" length="191.34666666666666" pos="-191.64666666666668"/>
    <laneAreaDetector file="e2output.xml" freq="60" speedThreshold="20" friendlyPos="x" id="e2det_1_20_-1025_1" lane="-1025_1" length="191.34666666666666" pos="-191.64666666666668"/>
    <laneAreaDetector file="e2output.xml" freq="60" speedThreshold="100" friendlyPos="x" id="e2det_1_100_-1025_1" lane="-1025_1" length="191.34666666666666" pos="-191.64666666666668"/>
    <laneAreaDetector file="e2output.xml" freq="60" speedThreshold="10" friendlyPos="x" id="e2det_2_10_-1025_1" lane="-1025_1" length="191.34666666666666" pos="-383.29333333333335"/>
    <laneAreaDetector file="e2output.xml" freq="60" speedThreshold="20" friendlyPos="x" id="e2det_2_20_-1025_1" lane="-1025_1" length="191.34666666666666" pos="-383.29333333333335"/>
    <laneAreaDetector file="e2output.xml" freq="60" speedThreshold="100" friendlyPos="x" id="e2det_2_100_-1025_1" lane="-1025_1" length="191.34666666666666" pos="-383.29333333333335"/>
    <laneAreaDetector file="e2output.xml" freq="60" speedThreshold="10" friendlyPos="x" id="e2det_0_10_-1027_0" lane="-1027_0" length="192.65666666666667" pos="0.0"/>
    <laneAreaDetector file="e2output.xml" freq="60" speedThreshold="20" friendlyPos="x" id="e2det_0_20_-1027_0" lane="-1027_0" length="192.65666666666667" pos="0.0"/>
    <laneAreaDetector file="e2output.xml" freq="60" speedThreshold="100" friendlyPos="x" id="e2det_0_100_-1027_0" lane="-1027_0" length="192.65666666666667" pos="0.0"/>
    <laneAreaDetector file="e2output.xml" freq="60" speedThreshold="10" friendlyPos="x" id="e2det_1_10_-1027_0" lane="-1027_0" length="192.65666666666667" pos="-192.95666666666668"/>
    <laneAreaDetector file="e2output.xml" freq="60" speedThreshold="20" friendlyPos="x" id="e2det_1_20_-1027_0" lane="-1027_0" length="192.65666666666667" pos="-192.95666666666668"/>
    <laneAreaDetector file="e2output.xml" freq="60" speedThreshold="100" friendlyPos="x" id="e2det_1_100_-1027_0" lane="-1027_0" length="192.65666666666667" pos="-192.95666666666668"/>
    <laneAreaDetector file="e2output.xml" freq="60" speedThreshold="10" friendlyPos="x" id="e2det_2_10_-1027_0" lane="-1027_0" length="192.65666666666667" pos="-385.91333333333336"/>
    <laneAreaDetector file="e2output.xml" freq="60" speedThreshold="20" friendlyPos="x" id="e2det_2_20_-1027_0" lane="-1027_0" length="192.65666666666667" pos="-385.91333333333336"/>
    <laneAreaDetector file="e2output.xml" freq="60" speedThreshold="100" friendlyPos="x" id="e2det_2_100_-1027_0" lane="-1027_0" length="192.65666666666667" pos="-385.91333333333336"/>
    <laneAreaDetector file="e2output.xml" freq="60" speedThreshold="10" friendlyPos="x" id="e2det_0_10_-1027_1" lane="-1027_1" length="192.65666666666667" pos="0.0"/>
    <laneAreaDetector file="e2output.xml" freq="60" speedThreshold="20" friendlyPos="x" id="e2det_0_20_-1027_1" lane="-1027_1" length="192.65666666666667" pos="0.0"/>
    <laneAreaDetector file="e2output.xml" freq="60" speedThreshold="100" friendlyPos="x" id="e2det_0_100_-1027_1" lane="-1027_1" length="192.65666666666667" pos="0.0"/>
    <laneAreaDetector file="e2output.xml" freq="60" speedThreshold="10" friendlyPos="x" id="e2det_1_10_-1027_1" lane="-1027_1" length="192.65666666666667" pos="-192.95666666666668"/>
    <laneAreaDetector file="e2output.xml" freq="60" speedThreshold="20" friendlyPos="x" id="e2det_1_20_-1027_1" lane="-1027_1" length="192.65666666666667" pos="-192.95666666666668"/>
    <laneAreaDetector file="e2output.xml" freq="60" speedThreshold="100" friendlyPos="x" id="e2det_1_100_-1027_1" lane="-1027_1" length="192.65666666666667" pos="-192.95666666666668"/>
    <laneAreaDetector file="e2output.xml" freq="60" speedThreshold="10" friendlyPos="x" id="e2det_2_10_-1027_1" lane="-1027_1" length="192.65666666666667" pos="-385.91333333333336"/>
    <laneAreaDetector file="e2output.xml" freq="60" speedThreshold="20" friendlyPos="x" id="e2det_2_20_-1027_1" lane="-1027_1" length="192.65666666666667" pos="-385.91333333333336"/>
    <laneAreaDetector file="e2output.xml" freq="60" speedThreshold="100" friendlyPos="x" id="e2det_2_100_-1027_1" lane="-1027_1" length="192.65666666666667" pos="-385.91333333333336"/>
    <laneAreaDetector file="e2output.xml" freq="60" speedThreshold="10" friendlyPos="x" id="e2det_0_10_864_0" lane="864_0" length="259.33333333333337" pos="0.0"/>
    <laneAreaDetector file="e2output.xml" freq="60" speedThreshold="20" friendlyPos="x" id="e2det_0_20_864_0" lane="864_0" length="259.33333333333337" pos="0.0"/>
    <laneAreaDetector file="e2output.xml" freq="60" speedThreshold="100" friendlyPos="x" id="e2det_0_100_864_0" lane="864_0" length="259.33333333333337" pos="0.0"/>
    <laneAreaDetector file="e2output.xml" freq="60" speedThreshold="10" friendlyPos="x" id="e2det_1_10_864_0" lane="864_0" length="259.33333333333337" pos="-259.6333333333334"/>
    <laneAreaDetector file="e2output.xml" freq="60" speedThreshold="20" friendlyPos="x" id="e2det_1_20_864_0" lane="864_0" length="259.33333333333337" pos="-259.6333333333334"/>
    <laneAreaDetector file="e2output.xml" freq="60" speedThreshold="100" friendlyPos="x" id="e2det_1_100_864_0" lane="864_0" length="259.33333333333337" pos="-259.6333333333334"/>
    <laneAreaDetector file="e2output.xml" freq="60" speedThreshold="10" friendlyPos="x" id="e2det_2_10_864_0" lane="864_0" length="259.33333333333337" pos="-519.2666666666668"/>
    <laneAreaDetector file="e2output.xml" freq="60" speedThreshold="20" friendlyPos="x" id="e2det_2_20_864_0" lane="864_0" length="259.33333333333337" pos="-519.2666666666668"/>
    <laneAreaDetector file="e2output.xml" freq="60" speedThreshold="100" friendlyPos="x" id="e2det_2_100_864_0" lane="864_0" length="259.33333333333337" pos="-519.2666666666668"/>
    <laneAreaDetector file="e2output.xml" freq="60" speedThreshold="10" friendlyPos="x" id="e2det_0_10_864_1" lane="864_1" length="259.33333333333337" pos="0.0"/>
    <laneAreaDetector file="e2output.xml" freq="60" speedThreshold="20" friendlyPos="x" id="e2det_0_20_864_1" lane="864_1" length="259.33333333333337" pos="0.0"/>
    <laneAreaDetector file="e2output.xml" freq="60" speedThreshold="100" friendlyPos="x" id="e2det_0_100_864_1" lane="864_1" length="259.33333333333337" pos="0.0"/>
    <laneAreaDetector file="e2output.xml" freq="60" speedThreshold="10" friendlyPos="x" id="e2det_1_10_864_1" lane="864_1" length="259.33333333333337" pos="-259.6333333333334"/>
    <laneAreaDetector file="e2output.xml" freq="60" speedThreshold="20" friendlyPos="x" id="e2det_1_20_864_1" lane="864_1" length="259.33333333333337" pos="-259.6333333333334"/>
    <laneAreaDetector file="e2output.xml" freq="60" speedThreshold="100" friendlyPos="x" id="e2det_1_100_864_1" lane="864_1" length="259.33333333333337" pos="-259.6333333333334"/>
    <laneAreaDetector file="e2output.xml" freq="60" speedThreshold="10" friendlyPos="x" id="e2det_2_10_864_1" lane="864_1" length="259.33333333333337" pos="-519.2666666666668"/>
    <laneAreaDetector file="e2output.xml" freq="60" speedThreshold="20" friendlyPos="x" id="e2det_2_20_864_1" lane="864_1" length="259.33333333333337" pos="-519.2666666666668"/>
    <laneAreaDetector file="e2output.xml" freq="60" speedThreshold="100" friendlyPos="x" id="e2det_2_100_864_1" lane="864_1" length="259.33333333333337" pos="-519.2666666666668"/>
    <laneAreaDetector file="e2output.xml" freq="60" speedThreshold="10" friendlyPos="x" id="e2det_0_10_-1028_0" lane="-1028_0" length="265.52" pos="0.0"/>
    <laneAreaDetector file="e2output.xml" freq="60" speedThreshold="20" friendlyPos="x" id="e2det_0_20_-1028_0" lane="-1028_0" length="265.52" pos="0.0"/>
    <laneAreaDetector file="e2output.xml" freq="60" speedThreshold="100" friendlyPos="x" id="e2det_0_100_-1028_0" lane="-1028_0" length="265.52" pos="0.0"/>
    <laneAreaDetector file="e2output.xml" freq="60" speedThreshold="10" friendlyPos="x" id="e2det_1_10_-1028_0" lane="-1028_0" length="265.52" pos="-265.82"/>
    <laneAreaDetector file="e2output.xml" freq="60" speedThreshold="20" friendlyPos="x" id="e2det_1_20_-1028_0" lane="-1028_0" length="265.52" pos="-265.82"/>
    <laneAreaDetector file="e2output.xml" freq="60" speedThreshold="100" friendlyPos="x" id="e2det_1_100_-1028_0" lane="-1028_0" length="265.52" pos="-265.82"/>
    <laneAreaDetector file="e2output.xml" freq="60" speedThreshold="10" friendlyPos="x" id="e2det_2_10_-1028_0" lane="-1028_0" length="265.52" pos="-531.64"/>
    <laneAreaDetector file="e2output.xml" freq="60" speedThreshold="20" friendlyPos="x" id="e2det_2_20_-1028_0" lane="-1028_0" length="265.52" pos="-531.64"/>
    <laneAreaDetector file="e2output.xml" freq="60" speedThreshold="100" friendlyPos="x" id="e2det_2_100_-1028_0" lane="-1028_0" length="265.52" pos="-531.64"/>
    <laneAreaDetector file="e2output.xml" freq="60" speedThreshold="10" friendlyPos="x" id="e2det_0_10_-1028_1" lane="-1028_1" length="265.52" pos="0.0"/>
    <laneAreaDetector file="e2output.xml" freq="60" speedThreshold="20" friendlyPos="x" id="e2det_0_20_-1028_1" lane="-1028_1" length="265.52" pos="0.0"/>
    <laneAreaDetector file="e2output.xml" freq="60" speedThreshold="100" friendlyPos="x" id="e2det_0_100_-1028_1" lane="-1028_1" length="265.52" pos="0.0"/>
    <laneAreaDetector file="e2output.xml" freq="60" speedThreshold="10" friendlyPos="x" id="e2det_1_10_-1028_1" lane="-1028_1" length="265.52" pos="-265.82"/>
    <laneAreaDetector file="e2output.xml" freq="60" speedThreshold="20" friendlyPos="x" id="e2det_1_20_-1028_1" lane="-1028_1" length="265.52" pos="-265.82"/>
    <laneAreaDetector file="e2output.xml" freq="60" speedThreshold="100" friendlyPos="x" id="e2det_1_100_-1028_1" lane="-1028_1" length="265.52" pos="-265.82"/>
    <laneAreaDetector file="e2output.xml" freq="60" speedThreshold="10" friendlyPos="x" id="e2det_2_10_-1028_1" lane="-1028_1" length="265.52" pos="-531.64"/>
    <laneAreaDetector file="e2output.xml" freq="60" speedThreshold="20" friendlyPos="x" id="e2det_2_20_-1028_1" lane="-1028_1" length="265.52" pos="-531.64"/>
    <laneAreaDetector file="e2output.xml" freq="60" speedThreshold="100" friendlyPos="x" id="e2det_2_100_-1028_1" lane="-1028_1" length="265.52" pos="-531.64"/>
    <laneAreaDetector file="e2output.xml" freq="60" speedThreshold="10" friendlyPos="x" id="e2det_0_10_-1032_0" lane="-1032_0" length="192.66666666666669" pos="0.0"/>
    <laneAreaDetector file="e2output.xml" freq="60" speedThreshold="20" friendlyPos="x" id="e2det_0_20_-1032_0" lane="-1032_0" length="192.66666666666669" pos="0.0"/>
    <laneAreaDetector file="e2output.xml" freq="60" speedThreshold="100" friendlyPos="x" id="e2det_0_100_-1032_0" lane="-1032_0" length="192.66666666666669" pos="0.0"/>
    <laneAreaDetector file="e2output.xml" freq="60" speedThreshold="10" friendlyPos="x" id="e2det_1_10_-1032_0" lane="-1032_0" length="192.66666666666669" pos="-192.9666666666667"/>
    <laneAreaDetector file="e2output.xml" freq="60" speedThreshold="20" friendlyPos="x" id="e2det_1_20_-1032_0" lane="-1032_0" length="192.66666666666669" pos="-192.9666666666667"/>
    <laneAreaDetector file="e2output.xml" freq="60" speedThreshold="100" friendlyPos="x" id="e2det_1_100_-1032_0" lane="-1032_0" length="192.66666666666669" pos="-192.9666666666667"/>
    <laneAreaDetector file="e2output.xml" freq="60" speedThreshold="10" friendlyPos="x" id="e2det_2_10_-1032_0" lane="-1032_0" length="192.66666666666669" pos="-385.9333333333334"/>
    <laneAreaDetector file="e2output.xml" freq="60" speedThreshold="20" friendlyPos="x" id="e2det_2_20_-1032_0" lane="-1032_0" length="192.66666666666669" pos="-385.9333333333334"/>
    <laneAreaDetector file="e2output.xml" freq="60" speedThreshold="100" friendlyPos="x" id="e2det_2_100_-1032_0" lane="-1032_0" length="192.66666666666669" pos="-385.9333333333334"/>
    <laneAreaDetector file="e2output.xml" freq="60" speedThreshold="10" friendlyPos="x" id="e2det_0_10_-1032_1" lane="-1032_1" length="192.66666666666669" pos="0.0"/>
    <laneAreaDetector file="e2output.xml" freq="60" speedThreshold="20" friendlyPos="x" id="e2det_0_20_-1032_1" lane="-1032_1" length="192.66666666666669" pos="0.0"/>
    <laneAreaDetector file="e2output.xml" freq="60" speedThreshold="100" friendlyPos="x" id="e2det_0_100_-1032_1" lane="-1032_1" length="192.66666666666669" pos="0.0"/>
    <laneAreaDetector file="e2output.xml" freq="60" speedThreshold="10" friendlyPos="x" id="e2det_1_10_-1032_1" lane="-1032_1" length="192.66666666666669" pos="-192.9666666666667"/>
    <laneAreaDetector file="e2output.xml" freq="60" speedThreshold="20" friendlyPos="x" id="e2det_1_20_-1032_1" lane="-1032_1" length="192.66666666666669" pos="-192.9666666666667"/>
    <laneAreaDetector file="e2output.xml" freq="60" speedThreshold="100" friendlyPos="x" id="e2det_1_100_-1032_1" lane="-1032_1" length="192.66666666666669" pos="-192.9666666666667"/>
    <laneAreaDetector file="e2output.xml" freq="60" speedThreshold="10" friendlyPos="x" id="e2det_2_10_-1032_1" lane="-1032_1" length="192.66666666666669" pos="-385.9333333333334"/>
    <laneAreaDetector file="e2output.xml" freq="60" speedThreshold="20" friendlyPos="x" id="e2det_2_20_-1032_1" lane="-1032_1" length="192.66666666666669" pos="-385.9333333333334"/>
    <laneAreaDetector file="e2output.xml" freq="60" speedThreshold="100" friendlyPos="x" id="e2det_2_100_-1032_1" lane="-1032_1" length="192.66666666666669" pos="-385.9333333333334"/>
    <laneAreaDetector file="e2output.xml" freq="60" speedThreshold="10" friendlyPos="x" id="e2det_0_10_-1036_0" lane="-1036_0" length="259.33333333333337" pos="0.0"/>
    <laneAreaDetector file="e2output.xml" freq="60" speedThreshold="20" friendlyPos="x" id="e2det_0_20_-1036_0" lane="-1036_0" length="259.33333333333337" pos="0.0"/>
    <laneAreaDetector file="e2output.xml" freq="60" speedThreshold="100" friendlyPos="x" id="e2det_0_100_-1036_0" lane="-1036_0" length="259.33333333333337" pos="0.0"/>
    <laneAreaDetector file="e2output.xml" freq="60" speedThreshold="10" friendlyPos="x" id="e2det_1_10_-1036_0" lane="-1036_0" length="259.33333333333337" pos="-259.6333333333334"/>
    <laneAreaDetector file="e2output.xml" freq="60" speedThreshold="20" friendlyPos="x" id="e2det_1_20_-1036_0" lane="-1036_0" length="259.33333333333337" pos="-259.6333333333334"/>
    <laneAreaDetector file="e2output.xml" freq="60" speedThreshold="100" friendlyPos="x" id="e2det_1_100_-1036_0" lane="-1036_0" length="259.33333333333337" pos="-259.6333333333334"/>
    <laneAreaDetector file="e2output.xml" freq="60" speedThreshold="10" friendlyPos="x" id="e2det_2_10_-1036_0" lane="-1036_0" length="259.33333333333337" pos="-519.2666666666668"/>
    <laneAreaDetector file="e2output.xml" freq="60" speedThreshold="20" friendlyPos="x" id="e2det_2_20_-1036_0" lane="-1036_0" length="259.33333333333337" pos="-519.2666666666668"/>