<?xml version="1.0" encoding="UTF-8"?>

<!-- generated on 2021-07-15 23:29:14 by Eclipse SUMO netgenerate Version 1.9.2
<configuration xmlns:xsi="http://www.w3.org/2001/XMLSchema-instance" xsi:noNamespaceSchemaLocation="http://sumo.dlr.de/xsd/netgenerateConfiguration.xsd">

    <random_network>
        <rand value="true"/>
        <rand.iterations value="200"/>
        <rand.max-distance value="1000"/>
        <rand.min-distance value="200"/>
        <rand.min-angle value="60"/>
        <rand.neighbor-dist1 value="0"/>
        <rand.neighbor-dist2 value="0"/>
        <rand.neighbor-dist3 value="1"/>
        <rand.neighbor-dist4 value="1"/>
        <rand.neighbor-dist5 value="0"/>
        <rand.neighbor-dist6 value="0"/>
        <rand.grid value="true"/>
    </random_network>

    <input>
        <type-files value="edge.typ.xml"/>
    </input>

    <output>
        <output-file value="rand.net.xml"/>
    </output>

    <building_defaults>
        <default.type value="two_lane"/>
        <default-junction-type value="traffic_light"/>
    </building_defaults>

    <junctions>
        <no-turnarounds value="true"/>
    </junctions>

</configuration>
-->

<net version="1.9" junctionCornerDetail="5" limitTurnSpeed="5.50" xmlns:xsi="http://www.w3.org/2001/XMLSchema-instance" xsi:noNamespaceSchemaLocation="http://sumo.dlr.de/xsd/net_file.xsd">

    <location netOffset="5000.00,6600.00" convBoundary="0.00,0.00,9800.00,9600.00" origBoundary="-5000.00,-6600.00,4800.00,3000.00" projParameter="!"/>

    <type id="two_lane" numLanes="2" speed="44.00"/>

    <edge id=":1_0" function="internal">
        <lane id=":1_0_0" index="0" speed="6.51" length="9.03" shape="4995.20,6610.40 4994.85,6607.95 4993.80,6606.20 4992.05,6605.15 4989.60,6604.80"/>
    </edge>
    <edge id=":1_1" function="internal">
        <lane id=":1_1_0" index="0" speed="28.95" length="20.80" shape="4995.20,6610.40 4995.20,6589.60"/>
        <lane id=":1_1_1" index="1" speed="28.95" length="20.80" shape="4998.40,6610.40 4998.40,6589.60"/>
    </edge>
    <edge id=":1_3" function="internal">
        <lane id=":1_3_0" index="0" speed="9.26" length="6.96" shape="4998.40,6610.40 4999.15,6605.15 5000.00,6603.73"/>
    </edge>
    <edge id=":1_16" function="internal">
        <lane id=":1_16_0" index="0" speed="9.26" length="12.40" shape="5000.00,6603.73 5001.40,6601.40 5005.15,6599.15 5010.40,6598.40"/>
    </edge>
    <edge id=":1_4" function="internal">
        <lane id=":1_4_0" index="0" speed="6.51" length="9.03" shape="5010.40,6604.80 5007.95,6605.15 5006.20,6606.20 5005.15,6607.95 5004.80,6610.40"/>
    </edge>
    <edge id=":1_5" function="internal">
        <lane id=":1_5_0" index="0" speed="28.95" length="20.80" shape="5010.40,6604.80 4989.60,6604.80"/>
        <lane id=":1_5_1" index="1" speed="28.95" length="20.80" shape="5010.40,6601.60 4989.60,6601.60"/>
    </edge>
    <edge id=":1_7" function="internal">
        <lane id=":1_7_0" index="0" speed="9.26" length="6.96" shape="5010.40,6601.60 5005.15,6600.85 5003.73,6600.00"/>
    </edge>
    <edge id=":1_17" function="internal">
        <lane id=":1_17_0" index="0" speed="9.26" length="12.40" shape="5003.73,6600.00 5001.40,6598.60 4999.15,6594.85 4998.40,6589.60"/>
    </edge>
    <edge id=":1_8" function="internal">
        <lane id=":1_8_0" index="0" speed="6.51" length="9.03" shape="5004.80,6589.60 5005.15,6592.05 5006.20,6593.80 5007.95,6594.85 5010.40,6595.20"/>
    </edge>
    <edge id=":1_9" function="internal">
        <lane id=":1_9_0" index="0" speed="28.95" length="20.80" shape="5004.80,6589.60 5004.80,6610.40"/>
        <lane id=":1_9_1" index="1" speed="28.95" length="20.80" shape="5001.60,6589.60 5001.60,6610.40"/>
    </edge>
    <edge id=":1_11" function="internal">
        <lane id=":1_11_0" index="0" speed="9.26" length="6.96" shape="5001.60,6589.60 5000.85,6594.85 5000.00,6596.27"/>
    </edge>
    <edge id=":1_18" function="internal">
        <lane id=":1_18_0" index="0" speed="9.26" length="12.40" shape="5000.00,6596.27 4998.60,6598.60 4994.85,6600.85 4989.60,6601.60"/>
    </edge>
    <edge id=":1_12" function="internal">
        <lane id=":1_12_0" index="0" speed="6.51" length="9.03" shape="4989.60,6595.20 4992.05,6594.85 4993.80,6593.80 4994.85,6592.05 4995.20,6589.60"/>
    </edge>
    <edge id=":1_13" function="internal">
        <lane id=":1_13_0" index="0" speed="28.95" length="20.80" shape="4989.60,6595.20 5010.40,6595.20"/>
        <lane id=":1_13_1" index="1" speed="28.95" length="20.80" shape="4989.60,6598.40 5010.40,6598.40"/>
    </edge>
    <edge id=":1_15" function="internal">
        <lane id=":1_15_0" index="0" speed="9.26" length="6.96" shape="4989.60,6598.40 4994.85,6599.15 4996.27,6600.00"/>
    </edge>
    <edge id=":1_19" function="internal">
        <lane id=":1_19_0" index="0" speed="9.26" length="12.40" shape="4996.27,6600.00 4998.60,6601.40 5000.85,6605.15 5001.60,6610.40"/>
    </edge>
    <edge id=":10_0" function="internal">
        <lane id=":10_0_0" index="0" speed="6.51" length="9.03" shape="4795.20,6610.40 4794.85,6607.95 4793.80,6606.20 4792.05,6605.15 4789.60,6604.80"/>
    </edge>
    <edge id=":10_1" function="internal">
        <lane id=":10_1_0" index="0" speed="28.95" length="20.80" shape="4795.20,6610.40 4795.20,6589.60"/>
        <lane id=":10_1_1" index="1" speed="28.95" length="20.80" shape="4798.40,6610.40 4798.40,6589.60"/>
    </edge>
    <edge id=":10_3" function="internal">
        <lane id=":10_3_0" index="0" speed="9.26" length="6.96" shape="4798.40,6610.40 4799.15,6605.15 4800.00,6603.73"/>
    </edge>
    <edge id=":10_16" function="internal">
        <lane id=":10_16_0" index="0" speed="9.26" length="12.40" shape="4800.00,6603.73 4801.40,6601.40 4805.15,6599.15 4810.40,6598.40"/>
    </edge>
    <edge id=":10_4" function="internal">
        <lane id=":10_4_0" index="0" speed="6.51" length="9.03" shape="4810.40,6604.80 4807.95,6605.15 4806.20,6606.20 4805.15,6607.95 4804.80,6610.40"/>
    </edge>
    <edge id=":10_5" function="internal">
        <lane id=":10_5_0" index="0" speed="44.00" length="20.80" shape="4810.40,6604.80 4789.60,6604.80"/>
        <lane id=":10_5_1" index="1" speed="44.00" length="20.80" shape="4810.40,6601.60 4789.60,6601.60"/>
    </edge>
    <edge id=":10_7" function="internal">
        <lane id=":10_7_0" index="0" speed="9.26" length="6.96" shape="4810.40,6601.60 4805.15,6600.85 4803.73,6600.00"/>
    </edge>
    <edge id=":10_17" function="internal">
        <lane id=":10_17_0" index="0" speed="9.26" length="12.40" shape="4803.73,6600.00 4801.40,6598.60 4799.15,6594.85 4798.40,6589.60"/>
    </edge>
    <edge id=":10_8" function="internal">
        <lane id=":10_8_0" index="0" speed="6.51" length="9.03" shape="4804.80,6589.60 4805.15,6592.05 4806.20,6593.80 4807.95,6594.85 4810.40,6595.20"/>
    </edge>
    <edge id=":10_9" function="internal">
        <lane id=":10_9_0" index="0" speed="28.95" length="20.80" shape="4804.80,6589.60 4804.80,6610.40"/>
        <lane id=":10_9_1" index="1" speed="28.95" length="20.80" shape="4801.60,6589.60 4801.60,6610.40"/>
    </edge>
    <edge id=":10_11" function="internal">
        <lane id=":10_11_0" index="0" speed="9.26" length="6.96" shape="4801.60,6589.60 4800.85,6594.85 4800.00,6596.27"/>
    </edge>
    <edge id=":10_18" function="internal">
        <lane id=":10_18_0" index="0" speed="9.26" length="12.40" shape="4800.00,6596.27 4798.60,6598.60 4794.85,6600.85 4789.60,6601.60"/>
    </edge>
    <edge id=":10_12" function="internal">
        <lane id=":10_12_0" index="0" speed="6.51" length="9.03" shape="4789.60,6595.20 4792.05,6594.85 4793.80,6593.80 4794.85,6592.05 4795.20,6589.60"/>
    </edge>
    <edge id=":10_13" function="internal">
        <lane id=":10_13_0" index="0" speed="13.89" length="20.80" shape="4789.60,6595.20 4810.40,6595.20"/>
        <lane id=":10_13_1" index="1" speed="13.89" length="20.80" shape="4789.60,6598.40 4810.40,6598.40"/>
    </edge>
    <edge id=":10_15" function="internal">
        <lane id=":10_15_0" index="0" speed="9.26" length="6.96" shape="4789.60,6598.40 4794.85,6599.15 4796.27,6600.00"/>
    </edge>
    <edge id=":10_19" function="internal">
        <lane id=":10_19_0" index="0" speed="9.26" length="12.40" shape="4796.27,6600.00 4798.60,6601.40 4800.85,6605.15 4801.60,6610.40"/>
    </edge>
    <edge id=":1020_0" function="internal">
        <lane id=":1020_0_0" index="0" speed="6.51" length="9.03" shape="5995.20,2410.40 5994.85,2407.95 5993.80,2406.20 5992.05,2405.15 5989.60,2404.80"/>
    </edge>
    <edge id=":1020_1" function="internal">
        <lane id=":1020_1_0" index="0" speed="28.95" length="20.80" shape="5995.20,2410.40 5995.20,2389.60"/>
        <lane id=":1020_1_1" index="1" speed="28.95" length="20.80" shape="5998.40,2410.40 5998.40,2389.60"/>
    </edge>
    <edge id=":1020_3" function="internal">
        <lane id=":1020_3_0" index="0" speed="9.26" length="6.96" shape="5998.40,2410.40 5999.15,2405.15 6000.00,2403.73"/>
    </edge>
    <edge id=":1020_16" function="internal">
        <lane id=":1020_16_0" index="0" speed="9.26" length="12.40" shape="6000.00,2403.73 6001.40,2401.40 6005.15,2399.15 6010.40,2398.40"/>
    </edge>
    <edge id=":1020_4" function="internal">
        <lane id=":1020_4_0" index="0" speed="6.51" length="9.03" shape="6010.40,2404.80 6007.95,2405.15 6006.20,2406.20 6005.15,2407.95 6004.80,2410.40"/>
    </edge>
    <edge id=":1020_5" function="internal">
        <lane id=":1020_5_0" index="0" speed="13.89" length="20.80" shape="6010.40,2404.80 5989.60,2404.80"/>
        <lane id=":1020_5_1" index="1" speed="13.89" length="20.80" shape="6010.40,2401.60 5989.60,2401.60"/>
    </edge>
    <edge id=":1020_7" function="internal">
        <lane id=":1020_7_0" index="0" speed="9.26" length="6.96" shape="6010.40,2401.60 6005.15,2400.85 6003.73,2400.00"/>
    </edge>
    <edge id=":1020_17" function="internal">
        <lane id=":1020_17_0" index="0" speed="9.26" length="12.40" shape="6003.73,2400.00 6001.40,2398.60 5999.15,2394.85 5998.40,2389.60"/>
    </edge>
    <edge id=":1020_8" function="internal">
        <lane id=":1020_8_0" index="0" speed="6.51" length="9.03" shape="6004.80,2389.60 6005.15,2392.05 6006.20,2393.80 6007.95,2394.85 6010.40,2395.20"/>
    </edge>
    <edge id=":1020_9" function="internal">
        <lane id=":1020_9_0" index="0" speed="28.95" length="20.80" shape="6004.80,2389.60 6004.80,2410.40"/>
        <lane id=":1020_9_1" index="1" speed="28.95" length="20.80" shape="6001.60,2389.60 6001.60,2410.40"/>
    </edge>
    <edge id=":1020_11" function="internal">
        <lane id=":1020_11_0" index="0" speed="9.26" length="6.96" shape="6001.60,2389.60 6000.85,2394.85 6000.00,2396.27"/>
    </edge>
    <edge id=":1020_18" function="internal">
        <lane id=":1020_18_0" index="0" speed="9.26" length="12.40" shape="6000.00,2396.27 5998.60,2398.60 5994.85,2400.85 5989.60,2401.60"/>
    </edge>
    <edge id=":1020_12" function="internal">
        <lane id=":1020_12_0" index="0" speed="6.51" length="9.03" shape="5989.60,2395.20 5992.05,2394.85 5993.80,2393.80 5994.85,2392.05 5995.20,2389.60"/>
    </edge>
    <edge id=":1020_13" function="internal">
        <lane id=":1020_13_0" index="0" speed="44.00" length="20.80" shape="5989.60,2395.20 6010.40,2395.20"/>
        <lane id=":1020_13_1" index="1" speed="44.00" length="20.80" shape="5989.60,2398.40 6010.40,2398.40"/>
    </edge>
    <edge id=":1020_15" function="internal">
        <lane id=":1020_15_0" index="0" speed="9.26" length="6.96" shape="5989.60,2398.40 5994.85,2399.15 5996.27,2400.00"/>
    </edge>
    <edge id=":1020_19" function="internal">
        <lane id=":1020_19_0" index="0" speed="9.26" length="12.40" shape="5996.27,2400.00 5998.60,2401.40 6000.85,2405.15 6001.60,2410.40"/>
    </edge>
    <edge id=":1024_0" function="internal">
        <lane id=":1024_0_0" index="0" speed="44.00" length="22.31" shape="5195.20,1814.36 5195.20,1792.04"/>
        <lane id=":1024_0_1" index="1" speed="44.00" length="22.31" shape="5198.40,1814.36 5198.40,1792.04"/>
    </edge>
    <edge id=":1024_2" function="internal">
        <lane id=":1024_2_0" index="0" speed="8.81" length="8.11" shape="5198.40,1814.36 5199.35,1807.42 5200.00,1806.53"/>
    </edge>
    <edge id=":1024_8" function="internal">
        <lane id=":1024_8_0" index="0" speed="8.81" length="15.51" shape="5200.00,1806.53 5202.19,1803.54 5206.92,1802.73 5213.56,1804.99"/>
    </edge>
    <edge id=":1024_3" function="internal">
        <lane id=":1024_3_0" index="0" speed="5.74" length="9.18" shape="5210.69,1810.71 5208.11,1809.84 5206.27,1810.15 5205.17,1811.66 5204.80,1814.36"/>
    </edge>
    <edge id=":1024_4" function="internal">
        <lane id=":1024_4_0" index="0" speed="12.14" length="21.98" shape="5212.12,1807.85 5206.12,1804.29 5201.83,1800.47 5199.26,1796.39 5198.40,1792.04"/>
    </edge>
    <edge id=":1024_5" function="internal">
        <lane id=":1024_5_0" index="0" speed="10.08" length="14.93" shape="5204.80,1792.04 5205.44,1794.55 5207.35,1797.06 5210.53,1799.59 5214.99,1802.13"/>
    </edge>
    <edge id=":1024_6" function="internal">
        <lane id=":1024_6_0" index="0" speed="13.89" length="22.31" shape="5204.80,1792.04 5204.80,1814.36"/>
        <lane id=":1024_6_1" index="1" speed="13.89" length="22.31" shape="5201.60,1792.04 5201.60,1814.36"/>
    </edge>
    <edge id=":1026_0" function="internal">
        <lane id=":1026_0_0" index="0" speed="8.79" length="14.11" shape="4609.00,2404.80 4606.53,2405.46 4604.40,2407.45 4602.59,2410.76 4601.10,2415.39"/>
    </edge>
    <edge id=":1026_1" function="internal">
        <lane id=":1026_1_0" index="0" speed="44.00" length="22.80" shape="4609.00,2404.80 4602.70,2404.99 4597.85,2405.60 4593.07,2406.66 4586.94,2408.21"/>
        <lane id=":1026_1_1" index="1" speed="44.00" length="22.80" shape="4609.00,2401.60 4602.57,2401.81 4597.47,2402.45 4592.41,2403.54 4586.16,2405.11"/>
    </edge>
    <edge id=":1026_3" function="internal">
        <lane id=":1026_3_0" index="0" speed="13.89" length="24.36" shape="4584.61,2398.90 4591.10,2397.30 4596.69,2396.14 4602.33,2395.44 4609.00,2395.20"/>
        <lane id=":1026_3_1" index="1" speed="13.89" length="24.36" shape="4585.38,2402.00 4591.76,2400.42 4597.08,2399.29 4602.45,2398.62 4609.00,2398.40"/>
    </edge>
    <edge id=":1026_5" function="internal">
        <lane id=":1026_5_0" index="0" speed="8.81" length="8.29" shape="4585.38,2402.00 4592.48,2401.22 4593.54,2401.66"/>
    </edge>
    <edge id=":1026_8" function="internal">
        <lane id=":1026_8_0" index="0" speed="8.81" length="15.64" shape="4593.54,2401.66 4596.94,2403.06 4598.78,2407.52 4598.00,2414.62"/>
    </edge>
    <edge id=":1026_6" function="internal">
        <lane id=":1026_6_0" index="0" speed="5.71" length="9.21" shape="4591.79,2413.06 4592.09,2410.34 4591.38,2408.62 4589.66,2407.91 4586.94,2408.21"/>
    </edge>
    <edge id=":1026_7" function="internal">
        <lane id=":1026_7_0" index="0" speed="11.01" length="22.60" shape="4594.89,2413.84 4597.22,2407.09 4600.35,2402.26 4604.27,2399.37 4609.00,2398.40"/>
    </edge>
    <edge id=":1031_0" function="internal">
        <lane id=":1031_0_0" index="0" speed="28.95" length="20.80" shape="3795.20,3210.40 3795.20,3189.60"/>
        <lane id=":1031_0_1" index="1" speed="28.95" length="20.80" shape="3798.40,3210.40 3798.40,3189.60"/>
    </edge>
    <edge id=":1031_2" function="internal">
        <lane id=":1031_2_0" index="0" speed="9.26" length="6.96" shape="3798.40,3210.40 3799.15,3205.15 3800.00,3203.73"/>
    </edge>
    <edge id=":1031_9" function="internal">
        <lane id=":1031_9_0" index="0" speed="9.26" length="12.40" shape="3800.00,3203.73 3801.40,3201.40 3805.15,3199.15 3810.40,3198.40"/>
    </edge>
    <edge id=":1031_3" function="internal">
        <lane id=":1031_3_0" index="0" speed="6.51" length="9.03" shape="3810.40,3204.80 3807.95,3205.15 3806.20,3206.20 3805.15,3207.95 3804.80,3210.40"/>
        <lane id=":1031_3_1" index="1" speed="8.00" length="14.19" shape="3810.40,3201.60 3806.55,3202.15 3803.80,3203.80 3802.15,3206.55 3801.60,3210.40"/>
    </edge>
    <edge id=":1031_5" function="internal">
        <lane id=":1031_5_0" index="0" speed="9.26" length="19.35" shape="3810.40,3201.60 3805.15,3200.85 3801.40,3198.60 3799.15,3194.85 3798.40,3189.60"/>
    </edge>
    <edge id=":1031_6" function="internal">
        <lane id=":1031_6_0" index="0" speed="6.51" length="9.03" shape="3804.80,3189.60 3805.15,3192.05 3806.20,3193.80 3807.95,3194.85 3810.40,3195.20"/>
    </edge>
    <edge id=":1031_7" function="internal">
        <lane id=":1031_7_0" index="0" speed="28.95" length="20.80" shape="3804.80,3189.60 3804.80,3210.40"/>
        <lane id=":1031_7_1" index="1" speed="28.95" length="20.80" shape="3801.60,3189.60 3801.60,3210.40"/>
    </edge>
    <edge id=":1035_0" function="internal">
        <lane id=":1035_0_0" index="0" speed="6.51" length="9.03" shape="4395.20,4010.40 4394.85,4007.95 4393.80,4006.20 4392.05,4005.15 4389.60,4004.80"/>
    </edge>
    <edge id=":1035_1" function="internal">
        <lane id=":1035_1_0" index="0" speed="13.89" length="20.80" shape="4395.20,4010.40 4395.20,3989.60"/>
        <lane id=":1035_1_1" index="1" speed="13.89" length="20.80" shape="4398.40,4010.40 4398.40,3989.60"/>
    </edge>
    <edge id=":1035_3" function="internal">
        <lane id=":1035_3_0" index="0" speed="44.00" length="20.80" shape="4404.80,3989.60 4404.80,4010.40"/>
        <lane id=":1035_3_1" index="1" speed="44.00" length="20.80" shape="4401.60,3989.60 4401.60,4010.40"/>
    </edge>
    <edge id=":1035_5" function="internal">
        <lane id=":1035_5_0" index="0" speed="9.26" length="6.96" shape="4401.60,3989.60 4400.85,3994.85 4400.00,3996.27"/>
    </edge>
    <edge id=":1035_9" function="internal">
        <lane id=":1035_9_0" index="0" speed="9.26" length="12.40" shape="4400.00,3996.27 4398.60,3998.60 4394.85,4000.85 4389.60,4001.60"/>
    </edge>
    <edge id=":1035_6" function="internal">
        <lane id=":1035_6_0" index="0" speed="6.51" length="9.03" shape="4389.60,3995.20 4392.05,3994.85 4393.80,3993.80 4394.85,3992.05 4395.20,3989.60"/>
        <lane id=":1035_6_1" index="1" speed="8.00" length="14.19" shape="4389.60,3998.40 4393.45,3997.85 4396.20,3996.20 4397.85,3993.45 4398.40,3989.60"/>
    </edge>
    <edge id=":1035_8" function="internal">
        <lane id=":1035_8_0" index="0" speed="9.26" length="19.35" shape="4389.60,3998.40 4394.85,3999.15 4398.60,4001.40 4400.85,4005.15 4401.60,4010.40"/>
    </edge>
    <edge id=":1046_0" function="internal">
        <lane id=":1046_0_0" index="0" speed="6.97" length="10.52" shape="7995.20,5410.40 7994.74,5407.95 7993.35,5406.20 7991.04,5405.15 7987.80,5404.80"/>
    </edge>
    <edge id=":1046_1" function="internal">
        <lane id=":1046_1_0" index="0" speed="28.95" length="21.73" shape="7995.20,5410.40 7995.10,5404.25 7994.70,5399.75 7993.85,5395.31 7992.39,5389.33"/>
        <lane id=":1046_1_1" index="1" speed="28.95" length="21.73" shape="7998.40,5410.40 7998.29,5404.13 7997.85,5399.37 7996.97,5394.66 7995.49,5388.56"/>
    </edge>
    <edge id=":1046_3" function="internal">
        <lane id=":1046_3_0" index="0" speed="9.26" length="6.68" shape="7998.40,5410.40 7999.15,5405.15 7999.86,5403.97"/>
    </edge>
    <edge id=":1046_16" function="internal">
        <lane id=":1046_16_0" index="0" speed="9.26" length="12.67" shape="7999.86,5403.97 8001.40,5401.40 8005.15,5399.15 8010.40,5398.40"/>
    </edge>
    <edge id=":1046_4" function="internal">
        <lane id=":1046_4_0" index="0" speed="6.51" length="9.03" shape="8010.40,5404.80 8007.95,5405.15 8006.20,5406.20 8005.15,5407.95 8004.80,5410.40"/>
    </edge>
    <edge id=":1046_5" function="internal">
        <lane id=":1046_5_0" index="0" speed="13.89" length="22.60" shape="8010.40,5404.80 7987.80,5404.80"/>
        <lane id=":1046_5_1" index="1" speed="13.89" length="22.60" shape="8010.40,5401.60 7987.80,5401.60"/>
    </edge>
    <edge id=":1046_7" function="internal">
        <lane id=":1046_7_0" index="0" speed="10.76" length="6.94" shape="8010.40,5401.60 8005.10,5400.78 8003.74,5400.00"/>
    </edge>
    <edge id=":1046_17" function="internal">
        <lane id=":1046_17_0" index="0" speed="10.76" length="14.62" shape="8003.74,5400.00 8000.85,5398.34 7997.64,5394.26 7995.49,5388.56"/>
    </edge>
    <edge id=":1046_8" function="internal">
        <lane id=":1046_8_0" index="0" speed="8.46" length="12.99" shape="8001.70,5387.00 8003.01,5390.59 8004.90,5393.15 8007.36,5394.69 8010.40,5395.20"/>
    </edge>
    <edge id=":1046_9" function="internal">
        <lane id=":1046_9_0" index="0" speed="28.95" length="23.29" shape="8001.70,5387.00 8003.21,5393.35 8004.16,5398.59 8004.66,5403.89 8004.80,5410.40"/>
        <lane id=":1046_9_1" index="1" speed="28.95" length="23.29" shape="7998.59,5387.78 8000.09,5394.00 8001.01,5398.98 8001.47,5404.01 8001.60,5410.40"/>
    </edge>
    <edge id=":1046_11" function="internal">
        <lane id=":1046_11_0" index="0" speed="8.94" length="7.56" shape="7998.59,5387.78 7999.22,5393.83 7998.70,5395.22"/>
    </edge>
    <edge id=":1046_18" function="internal">
        <lane id=":1046_18_0" index="0" speed="8.94" length="13.80" shape="7998.70,5395.22 7997.62,5398.14 7993.82,5400.74 7987.80,5401.60"/>
    </edge>
    <edge id=":1046_12" function="internal">
        <lane id=":1046_12_0" index="0" speed="6.04" length="9.07" shape="7987.80,5395.20 7990.36,5394.83 7991.97,5393.73 7992.65,5391.90 7992.39,5389.33"/>
    </edge>
    <edge id=":1046_13" function="internal">
        <lane id=":1046_13_0" index="0" speed="44.00" length="22.60" shape="7987.80,5395.20 8010.40,5395.20"/>
        <lane id=":1046_13_1" index="1" speed="44.00" length="22.60" shape="7987.80,5398.40 8010.40,5398.40"/>
    </edge>
    <edge id=":1046_15" function="internal">
        <lane id=":1046_15_0" index="0" speed="9.59" length="7.92" shape="7987.80,5398.40 7993.84,5399.15 7995.47,5400.00"/>
    </edge>
    <edge id=":1046_19" function="internal">
        <lane id=":1046_19_0" index="0" speed="9.59" length="12.90" shape="7995.47,5400.00 7998.15,5401.40 8000.74,5405.15 8001.60,5410.40"/>
    </edge>
    <edge id=":1074_0" function="internal">
        <lane id=":1074_0_0" index="0" speed="6.51" length="9.03" shape="4395.20,4410.40 4394.85,4407.95 4393.80,4406.20 4392.05,4405.15 4389.60,4404.80"/>
    </edge>
    <edge id=":1074_1" function="internal">
        <lane id=":1074_1_0" index="0" speed="13.89" length="20.80" shape="4395.20,4410.40 4395.20,4389.60"/>
        <lane id=":1074_1_1" index="1" speed="13.89" length="20.80" shape="4398.40,4410.40 4398.40,4389.60"/>
    </edge>
    <edge id=":1074_3" function="internal">
        <lane id=":1074_3_0" index="0" speed="9.26" length="6.96" shape="4398.40,4410.40 4399.15,4405.15 4400.00,4403.73"/>
    </edge>
    <edge id=":1074_16" function="internal">
        <lane id=":1074_16_0" index="0" speed="9.26" length="12.40" shape="4400.00,4403.73 4401.40,4401.40 4405.15,4399.15 4410.40,4398.40"/>
    </edge>
    <edge id=":1074_4" function="internal">
        <lane id=":1074_4_0" index="0" speed="6.51" length="9.03" shape="4410.40,4404.80 4407.95,4405.15 4406.20,4406.20 4405.15,4407.95 4404.80,4410.40"/>
    </edge>
    <edge id=":1074_5" function="internal">
        <lane id=":1074_5_0" index="0" speed="44.00" length="20.80" shape="4410.40,4404.80 4389.60,4404.80"/>
        <lane id=":1074_5_1" index="1" speed="44.00" length="20.80" shape="4410.40,4401.60 4389.60,4401.60"/>
    </edge>
    <edge id=":1074_7" function="internal">
        <lane id=":1074_7_0" index="0" speed="9.26" length="6.96" shape="4410.40,4401.60 4405.15,4400.85 4403.73,4400.00"/>
    </edge>
    <edge id=":1074_17" function="internal">
        <lane id=":1074_17_0" index="0" speed="9.26" length="12.40" shape="4403.73,4400.00 4401.40,4398.60 4399.15,4394.85 4398.40,4389.60"/>
    </edge>
    <edge id=":1074_8" function="internal">
        <lane id=":1074_8_0" index="0" speed="6.51" length="9.03" shape="4404.80,4389.60 4405.15,4392.05 4406.20,4393.80 4407.95,4394.85 4410.40,4395.20"/>
    </edge>
    <edge id=":1074_9" function="internal">
        <lane id=":1074_9_0" index="0" speed="44.00" length="20.80" shape="4404.80,4389.60 4404.80,4410.40"/>
        <lane id=":1074_9_1" index="1" speed="44.00" length="20.80" shape="4401.60,4389.60 4401.60,4410.40"/>
    </edge>
    <edge id=":1074_11" function="internal">
        <lane id=":1074_11_0" index="0" speed="9.26" length="6.96" shape="4401.60,4389.60 4400.85,4394.85 4400.00,4396.27"/>
    </edge>
    <edge id=":1074_18" function="internal">
        <lane id=":1074_18_0" index="0" speed="9.26" length="12.40" shape="4400.00,4396.27 4398.60,4398.60 4394.85,4400.85 4389.60,4401.60"/>
    </edge>
    <edge id=":1074_12" function="internal">
        <lane id=":1074_12_0" index="0" speed="6.51" length="9.03" shape="4389.60,4395.20 4392.05,4394.85 4393.80,4393.80 4394.85,4392.05 4395.20,4389.60"/>
    </edge>
    <edge id=":1074_13" function="internal">
        <lane id=":1074_13_0" index="0" speed="13.89" length="20.80" shape="4389.60,4395.20 4410.40,4395.20"/>
        <lane id=":1074_13_1" index="1" speed="13.89" length="20.80" shape="4389.60,4398.40 4410.40,4398.40"/>
    </edge>
    <edge id=":1074_15" function="internal">
        <lane id=":1074_15_0" index="0" speed="9.26" length="6.96" shape="4389.60,4398.40 4394.85,4399.15 4396.27,4400.00"/>
    </edge>
    <edge id=":1074_19" function="internal">
        <lane id=":1074_19_0" index="0" speed="9.26" length="12.40" shape="4396.27,4400.00 4398.60,4401.40 4400.85,4405.15 4401.60,4410.40"/>
    </edge>
    <edge id=":1083_0" function="internal">
        <lane id=":1083_0_0" index="0" speed="10.72" length="16.99" shape="5995.20,2210.40 5994.56,2206.83 5992.65,2203.55 5989.47,2200.57 5985.01,2197.87"/>
    </edge>
    <edge id=":1083_1" function="internal">
        <lane id=":1083_1_0" index="0" speed="44.00" length="24.76" shape="5995.20,2210.40 5995.20,2185.64"/>
        <lane id=":1083_1_1" index="1" speed="44.00" length="24.76" shape="5998.40,2210.40 5998.40,2185.64"/>
    </edge>
    <edge id=":1083_3" function="internal">
        <lane id=":1083_3_0" index="0" speed="9.26" length="6.96" shape="5998.40,2210.40 5999.15,2205.15 6000.00,2203.73"/>
    </edge>
    <edge id=":1083_16" function="internal">
        <lane id=":1083_16_0" index="0" speed="9.26" length="12.40" shape="6000.00,2203.73 6001.40,2201.40 6005.15,2199.15 6010.40,2198.40"/>
    </edge>
    <edge id=":1083_4" function="internal">
        <lane id=":1083_4_0" index="0" speed="6.51" length="9.03" shape="6010.40,2204.80 6007.95,2205.15 6006.20,2206.20 6005.15,2207.95 6004.80,2210.40"/>
    </edge>
    <edge id=":1083_5" function="internal">
        <lane id=":1083_5_0" index="0" speed="27.00" length="25.86" shape="6010.40,2204.80 6003.47,2204.35 5997.31,2203.01 5991.35,2200.84 5985.01,2197.87"/>
        <lane id=":1083_5_1" index="1" speed="26.25" length="25.86" shape="6010.40,2201.60 6003.70,2201.20 5998.03,2199.98 5992.55,2197.93 5986.44,2195.01"/>
    </edge>
    <edge id=":1083_7" function="internal">
        <lane id=":1083_7_0" index="0" speed="9.97" length="6.86" shape="6010.40,2201.60 6005.15,2200.60 6003.96,2199.66"/>
    </edge>
    <edge id=":1083_17" function="internal">
        <lane id=":1083_17_0" index="0" speed="9.97" length="15.77" shape="6003.96,2199.66 6001.40,2197.61 5999.15,2192.63 5998.40,2185.64"/>
    </edge>
    <edge id=":1083_8" function="internal">
        <lane id=":1083_8_0" index="0" speed="7.51" length="12.39" shape="6004.80,2185.64 6005.15,2189.83 6006.20,2192.81 6007.95,2194.60 6010.40,2195.20"/>
    </edge>
    <edge id=":1083_9" function="internal">
        <lane id=":1083_9_0" index="0" speed="13.89" length="24.76" shape="6004.80,2185.64 6004.80,2210.40"/>
        <lane id=":1083_9_1" index="1" speed="13.89" length="24.76" shape="6001.60,2185.64 6001.60,2210.40"/>
    </edge>
    <edge id=":1083_11" function="internal">
        <lane id=":1083_11_0" index="0" speed="8.81" length="8.11" shape="6001.60,2185.64 6000.65,2192.58 6000.00,2193.47"/>
    </edge>
    <edge id=":1083_18" function="internal">
        <lane id=":1083_18_0" index="0" speed="8.81" length="15.51" shape="6000.00,2193.47 5997.81,2196.46 5993.08,2197.27 5986.44,2195.01"/>
    </edge>
    <edge id=":1083_12" function="internal">
        <lane id=":1083_12_0" index="0" speed="5.74" length="9.18" shape="5989.31,2189.29 5991.89,2190.16 5993.73,2189.85 5994.83,2188.34 5995.20,2185.64"/>
    </edge>
    <edge id=":1083_13" function="internal">
        <lane id=":1083_13_0" index="0" speed="24.69" length="22.95" shape="5989.31,2189.29 5994.97,2192.10 5999.46,2193.92 6004.14,2194.90 6010.40,2195.20"/>
        <lane id=":1083_13_1" index="1" speed="25.48" length="22.95" shape="5987.88,2192.15 5993.76,2195.01 5998.74,2196.95 6003.92,2198.05 6010.40,2198.40"/>
    </edge>
    <edge id=":1083_15" function="internal">
        <lane id=":1083_15_0" index="0" speed="12.69" length="9.00" shape="5987.88,2192.15 5993.88,2195.86 5995.25,2197.23"/>
    </edge>
    <edge id=":1083_19" function="internal">
        <lane id=":1083_19_0" index="0" speed="12.69" length="15.09" shape="5995.25,2197.23 5998.17,2200.14 6000.74,2204.99 6001.60,2210.40"/>
    </edge>
    <edge id=":1089_0" function="internal">
        <lane id=":1089_0_0" index="0" speed="6.51" length="9.03" shape="3795.20,4010.40 3794.85,4007.95 3793.80,4006.20 3792.05,4005.15 3789.60,4004.80"/>
    </edge>
    <edge id=":1089_1" function="internal">
        <lane id=":1089_1_0" index="0" speed="13.89" length="20.80" shape="3795.20,4010.40 3795.20,3989.60"/>
        <lane id=":1089_1_1" index="1" speed="13.89" length="20.80" shape="3798.40,4010.40 3798.40,3989.60"/>
    </edge>
    <edge id=":1089_3" function="internal">