<additional xmlns:xsi="http://www.w3.org/2001/XMLSchema-instance" xsi:noNamespaceSchemaLocation="http://sumo.dlr.de/xsd/additional_file.xsd">
    <laneAreaDetector file="e2output.xml" freq="60" speedThreshold="10" friendlyPos="x" id="e2det_0_10_-1088_0" lane="-1088_0" length="269.6066666666667" pos="0.0"/>
    <laneAreaDetector file="e2output.xml" freq="60" speedThreshold="20" friendlyPos="x" id="e2det_0_20_-1088_0" lane="-1088_0" length="269.6066666666667" pos="0.0"/>
    <laneAreaDetector file="e2output.xml" freq="60" speedThreshold="100" friendlyPos="x" id="e2det_0_100_-1088_0" lane="-1088_0" length="269.6066666666667" pos="0.0"/>
    <laneAreaDetector file="e2output.xml" freq="60" speedThreshold="10" friendlyPos="x" id="e2det_1_10_-1088_0" lane="-1088_0" length="269.6066666666667" pos="-269.9066666666667"/>
    <laneAreaDetector file="e2output.xml" freq="60" speedThreshold="20" friendlyPos="x" id="e2det_1_20_-1088_0" lane="-1088_0" length="269.6066666666667" pos="-269.9066666666667"/>
    <laneAreaDetector file="e2output.xml" freq="60" speedThreshold="100" friendlyPos="x" id="e2det_1_100_-1088_0" lane="-1088_0" length="269.6066666666667" pos="-269.9066666666667"/>
    <laneAreaDetector file="e2output.xml" freq="60" speedThreshold="10" friendlyPos="x" id="e2det_2_10_-1088_0" lane="-1088_0" length="269.6066666666667" pos="-539.8133333333334"/>
    <laneAreaDetector file="e2output.xml" freq="60" speedThreshold="20" friendlyPos="x" id="e2det_2_20_-1088_0" lane="-1088_0" length="269.6066666666667" pos="-539.8133333333334"/>
    <laneAreaDetector file="e2output.xml" freq="60" speedThreshold="100" friendlyPos="x" id="e2det_2_100_-1088_0" lane="-1088_0" length="269.6066666666667" pos="-539.8133333333334"/>
    <laneAreaDetector file="e2output.xml" freq="60" speedThreshold="10" friendlyPos="x" id="e2det_0_10_-2752_0" lane="-2752_0" length="193.29000000000002" pos="0.0"/>
    <laneAreaDetector file="e2output.xml" freq="60" speedThreshold="20" friendlyPos="x" id="e2det_0_20_-2752_0" lane="-2752_0" length="193.29000000000002" pos="0.0"/>
    <laneAreaDetector file="e2output.xml" freq="60" speedThreshold="100" friendlyPos="x" id="e2det_0_100_-2752_0" lane="-2752_0" length="193.29000000000002" pos="0.0"/>
    <laneAreaDetector file="e2output.xml" freq="60" speedThreshold="10" friendlyPos="x" id="e2det_1_10_-2752_0" lane="-2752_0" length="193.29000000000002" pos="-193.59000000000003"/>
    <laneAreaDetector file="e2output.xml" freq="60" speedThreshold="20" friendlyPos="x" id="e2det_1_20_-2752_0" lane="-2752_0" length="193.29000000000002" pos="-193.59000000000003"/>
    <laneAreaDetector file="e2output.xml" freq="60" speedThreshold="100" friendlyPos="x" id="e2det_1_100_-2752_0" lane="-2752_0" length="193.29000000000002" pos="-193.59000000000003"/>
    <laneAreaDetector file="e2output.xml" freq="60" speedThreshold="10" friendlyPos="x" id="e2det_2_10_-2752_0" lane="-2752_0" length="193.29000000000002" pos="-387.18000000000006"/>
    <laneAreaDetector file="e2output.xml" freq="60" speedThreshold="20" friendlyPos="x" id="e2det_2_20_-2752_0" lane="-2752_0" length="193.29000000000002" pos="-387.18000000000006"/>
    <laneAreaDetector file="e2output.xml" freq="60" speedThreshold="100" friendlyPos="x" id="e2det_2_100_-2752_0" lane="-2752_0" length="193.29000000000002" pos="-387.18000000000006"/>
    <laneAreaDetector file="e2output.xml" freq="60" speedThreshold="10" friendlyPos="x" id="e2det_0_10_919_0" lane="919_0" length="61.46666666666666" pos="1.1379786002407855e-14"/>
    <laneAreaDetector file="e2output.xml" freq="60" speedThreshold="20" friendlyPos="x" id="e2det_0_20_919_0" lane="919_0" length="61.46666666666666" pos="1.1379786002407855e-14"/>
    <laneAreaDetector file="e2output.xml" freq="60" speedThreshold="100" friendlyPos="x" id="e2det_0_100_919_0" lane="919_0" length="61.46666666666666" pos="1.1379786002407855e-14"/>
    <laneAreaDetector file="e2output.xml" freq="60" speedThreshold="10" friendlyPos="x" id="e2det_1_10_919_0" lane="919_0" length="61.46666666666666" pos="-61.766666666666644"/>
    <laneAreaDetector file="e2output.xml" freq="60" speedThreshold="20" friendlyPos="x" id="e2det_1_20_919_0" lane="919_0" length="61.46666666666666" pos="-61.766666666666644"/>
    <laneAreaDetector file="e2output.xml" freq="60" speedThreshold="100" friendlyPos="x" id="e2det_1_100_919_0" lane="919_0" length="61.46666666666666" pos="-61.766666666666644"/>
    <laneAreaDetector file="e2output.xml" freq="60" speedThreshold="10" friendlyPos="x" id="e2det_2_10_919_0" lane="919_0" length="61.46666666666666" pos="-123.5333333333333"/>
    <laneAreaDetector file="e2output.xml" freq="60" speedThreshold="20" friendlyPos="x" id="e2det_2_20_919_0" lane="919_0" length="61.46666666666666" pos="-123.5333333333333"/>
    <laneAreaDetector file="e2output.xml" freq="60" speedThreshold="100" friendlyPos="x" id="e2det_2_100_919_0" lane="919_0" length="61.46666666666666" pos="-123.5333333333333"/>
    <laneAreaDetector file="e2output.xml" freq="60" speedThreshold="10" friendlyPos="x" id="e2det_0_10_-1093_0" lane="-1093_0" length="269.0733333333333" pos="0.0"/>
    <laneAreaDetector file="e2output.xml" freq="60" speedThreshold="20" friendlyPos="x" id="e2det_0_20_-1093_0" lane="-1093_0" length="269.0733333333333" pos="0.0"/>
    <laneAreaDetector file="e2output.xml" freq="60" speedThreshold="100" friendlyPos="x" id="e2det_0_100_-1093_0" lane="-1093_0" length="269.0733333333333" pos="0.0"/>
    <laneAreaDetector file="e2output.xml" freq="60" speedThreshold="10" friendlyPos="x" id="e2det_1_10_-1093_0" lane="-1093_0" length="269.0733333333333" pos="-269.37333333333333"/>
    <laneAreaDetector file="e2output.xml" freq="60" speedThreshold="20" friendlyPos="x" id="e2det_1_20_-1093_0" lane="-1093_0" length="269.0733333333333" pos="-269.37333333333333"/>
    <laneAreaDetector file="e2output.xml" freq="60" speedThreshold="100" friendlyPos="x" id="e2det_1_100_-1093_0" lane="-1093_0" length="269.0733333333333" pos="-269.37333333333333"/>
    <laneAreaDetector file="e2output.xml" freq="60" speedThreshold="10" friendlyPos="x" id="e2det_2_10_-1093_0" lane="-1093_0" length="269.0733333333333" pos="-538.7466666666667"/>
    <laneAreaDetector file="e2output.xml" freq="60" speedThreshold="20" friendlyPos="x" id="e2det_2_20_-1093_0" lane="-1093_0" length="269.0733333333333" pos="-538.7466666666667"/>
    <laneAreaDetector file="e2output.xml" freq="60" speedThreshold="100" friendlyPos="x" id="e2det_2_100_-1093_0" lane="-1093_0" length="269.0733333333333" pos="-538.7466666666667"/>
    <laneAreaDetector file="e2output.xml" freq="60" speedThreshold="10" friendlyPos="x" id="e2det_0_10_-1094_0" lane="-1094_0" length="204.79333333333335" pos="0.0"/>
    <laneAreaDetector file="e2output.xml" freq="60" speedThreshold="20" friendlyPos="x" id="e2det_0_20_-1094_0" lane="-1094_0" length="204.79333333333335" pos="0.0"/>
    <laneAreaDetector file="e2output.xml" freq="60" speedThreshold="100" friendlyPos="x" id="e2det_0_100_-1094_0" lane="-1094_0" length="204.79333333333335" pos="0.0"/>
    <laneAreaDetector file="e2output.xml" freq="60" speedThreshold="10" friendlyPos="x" id="e2det_1_10_-1094_0" lane="-1094_0" length="204.79333333333335" pos="-205.09333333333336"/>
    <laneAreaDetector file="e2output.xml" freq="60" speedThreshold="20" friendlyPos="x" id="e2det_1_20_-1094_0" lane="-1094_0" length="204.79333333333335" pos="-205.09333333333336"/>
    <laneAreaDetector file="e2output.xml" freq="60" speedThreshold="100" friendlyPos="x" id="e2det_1_100_-1094_0" lane="-1094_0" length="204.79333333333335" pos="-205.09333333333336"/>
    <laneAreaDetector file="e2output.xml" freq="60" speedThreshold="10" friendlyPos="x" id="e2det_2_10_-1094_0" lane="-1094_0" length="204.79333333333335" pos="-410.1866666666667"/>
    <laneAreaDetector file="e2output.xml" freq="60" speedThreshold="20" friendlyPos="x" id="e2det_2_20_-1094_0" lane="-1094_0" length="204.79333333333335" pos="-410.1866666666667"/>
    <laneAreaDetector file="e2output.xml" freq="60" speedThreshold="100" friendlyPos="x" id="e2det_2_100_-1094_0" lane="-1094_0" length="204.79333333333335" pos="-410.1866666666667"/>
    <laneAreaDetector file="e2output.xml" freq="60" speedThreshold="10" friendlyPos="x" id="e2det_0_10_924_0" lane="924_0" length="261.05333333333334" pos="0.0"/>
    <laneAreaDetector file="e2output.xml" freq="60" speedThreshold="20" friendlyPos="x" id="e2det_0_20_924_0" lane="924_0" length="261.05333333333334" pos="0.0"/>
    <laneAreaDetector file="e2output.xml" freq="60" speedThreshold="100" friendlyPos="x" id="e2det_0_100_924_0" lane="924_0" length="261.05333333333334" pos="0.0"/>
    <laneAreaDetector file="e2output.xml" freq="60" speedThreshold="10" friendlyPos="x" id="e2det_1_10_924_0" lane="924_0" length="261.05333333333334" pos="-261.35333333333335"/>
    <laneAreaDetector file="e2output.xml" freq="60" speedThreshold="20" friendlyPos="x" id="e2det_1_20_924_0" lane="924_0" length="261.05333333333334" pos="-261.35333333333335"/>
    <laneAreaDetector file="e2output.xml" freq="60" speedThreshold="100" friendlyPos="x" id="e2det_1_100_924_0" lane="924_0" length="261.05333333333334" pos="-261.35333333333335"/>
    <laneAreaDetector file="e2output.xml" freq="60" speedThreshold="10" friendlyPos="x" id="e2det_2_10_924_0" lane="924_0" length="261.05333333333334" pos="-522.7066666666667"/>
    <laneAreaDetector file="e2output.xml" freq="60" speedThreshold="20" friendlyPos="x" id="e2det_2_20_924_0" lane="924_0" length="261.05333333333334" pos="-522.7066666666667"/>
    <laneAreaDetector file="e2output.xml" freq="60" speedThreshold="100" friendlyPos="x" id="e2det_2_100_924_0" lane="924_0" length="261.05333333333334" pos="-522.7066666666667"/>
    <laneAreaDetector file="e2output.xml" freq="60" speedThreshold="10" friendlyPos="x" id="e2det_0_10_-1097_0" lane="-1097_0" length="59.95666666666666" pos="1.1379786002407855e-14"/>
    <laneAreaDetector file="e2output.xml" freq="60" speedThreshold="20" friendlyPos="x" id="e2det_0_20_-1097_0" lane="-1097_0" length="59.95666666666666" pos="1.1379786002407855e-14"/>
    <laneAreaDetector file="e2output.xml" freq="60" speedThreshold="100" friendlyPos="x" id="e2det_0_100_-1097_0" lane="-1097_0" length="59.95666666666666" pos="1.1379786002407855e-14"/>
    <laneAreaDetector file="e2output.xml" freq="60" speedThreshold="10" friendlyPos="x" id="e2det_1_10_-1097_0" lane="-1097_0" length="59.95666666666666" pos="-60.256666666666646"/>
    <laneAreaDetector file="e2output.xml" freq="60" speedThreshold="20" friendlyPos="x" id="e2det_1_20_-1097_0" lane="-1097_0" length="59.95666666666666" pos="-60.256666666666646"/>
    <laneAreaDetector file="e2output.xml" freq="60" speedThreshold="100" friendlyPos="x" id="e2det_1_100_-1097_0" lane="-1097_0" length="59.95666666666666" pos="-60.256666666666646"/>
    <laneAreaDetector file="e2output.xml" freq="60" speedThreshold="10" friendlyPos="x" id="e2det_2_10_-1097_0" lane="-1097_0" length="59.95666666666666" pos="-120.5133333333333"/>
    <laneAreaDetector file="e2output.xml" freq="60" speedThreshold="20" friendlyPos="x" id="e2det_2_20_-1097_0" lane="-1097_0" length="59.95666666666666" pos="-120.5133333333333"/>
    <laneAreaDetector file="e2output.xml" freq="60" speedThreshold="100" friendlyPos="x" id="e2det_2_100_-1097_0" lane="-1097_0" length="59.95666666666666" pos="-120.5133333333333"/>
    <laneAreaDetector file="e2output.xml" freq="60" speedThreshold="10" friendlyPos="x" id="e2det_0_10_-1348_0" lane="-1348_0" length="128.13333333333333" pos="1.1379786002407855e-14"/>
    <laneAreaDetector file="e2output.xml" freq="60" speedThreshold="20" friendlyPos="x" id="e2det_0_20_-1348_0" lane="-1348_0" length="128.13333333333333" pos="1.1379786002407855e-14"/>
    <laneAreaDetector file="e2output.xml" freq="60" speedThreshold="100" friendlyPos="x" id="e2det_0_100_-1348_0" lane="-1348_0" length="128.13333333333333" pos="1.1379786002407855e-14"/>
    <laneAreaDetector file="e2output.xml" freq="60" speedThreshold="10" friendlyPos="x" id="e2det_1_10_-1348_0" lane="-1348_0" length="128.13333333333333" pos="-128.43333333333334"/>
    <laneAreaDetector file="e2output.xml" freq="60" speedThreshold="20" friendlyPos="x" id="e2det_1_20_-1348_0" lane="-1348_0" length="128.13333333333333" pos="-128.43333333333334"/>
    <laneAreaDetector file="e2output.xml" freq="60" speedThreshold="100" friendlyPos="x" id="e2det_1_100_-1348_0" lane="-1348_0" length="128.13333333333333" pos="-128.43333333333334"/>
    <laneAreaDetector file="e2output.xml" freq="60" speedThreshold="10" friendlyPos="x" id="e2det_2_10_-1348_0" lane="-1348_0" length="128.13333333333333" pos="-256.8666666666667"/>
    <laneAreaDetector file="e2output.xml" freq="60" speedThreshold="20" friendlyPos="x" id="e2det_2_20_-1348_0" lane="-1348_0" length="128.13333333333333" pos="-256.8666666666667"/>
    <laneAreaDetector file="e2output.xml" freq="60" speedThreshold="100" friendlyPos="x" id="e2det_2_100_-1348_0" lane="-1348_0" length="128.13333333333333" pos="-256.8666666666667"/>
    <laneAreaDetector file="e2output.xml" freq="60" speedThreshold="10" friendlyPos="x" id="e2det_0_10_-2003_0" lane="-2003_0" length="59.95666666666666" pos="1.1379786002407855e-14"/>
    <laneAreaDetector file="e2output.xml" freq="60" speedThreshold="20" friendlyPos="x" id="e2det_0_20_-2003_0" lane="-2003_0" length="59.95666666666666" pos="1.1379786002407855e-14"/>
    <laneAreaDetector file="e2output.xml" freq="60" speedThreshold="100" friendlyPos="x" id="e2det_0_100_-2003_0" lane="-2003_0" length="59.95666666666666" pos="1.1379786002407855e-14"/>
    <laneAreaDetector file="e2output.xml" freq="60" speedThreshold="10" friendlyPos="x" id="e2det_1_10_-2003_0" lane="-2003_0" length="59.95666666666666" pos="-60.256666666666646"/>
    <laneAreaDetector file="e2output.xml" freq="60" speedThreshold="20" friendlyPos="x" id="e2det_1_20_-2003_0" lane="-2003_0" length="59.95666666666666" pos="-60.256666666666646"/>
    <laneAreaDetector file="e2output.xml" freq="60" speedThreshold="100" friendlyPos="x" id="e2det_1_100_-2003_0" lane="-2003_0" length="59.95666666666666" pos="-60.256666666666646"/>
    <laneAreaDetector file="e2output.xml" freq="60" speedThreshold="10" friendlyPos="x" id="e2det_2_10_-2003_0" lane="-2003_0" length="59.95666666666666" pos="-120.5133333333333"/>
    <laneAreaDetector file="e2output.xml" freq="60" speedThreshold="20" friendlyPos="x" id="e2det_2_20_-2003_0" lane="-2003_0" length="59.95666666666666" pos="-120.5133333333333"/>
    <laneAreaDetector file="e2output.xml" freq="60" speedThreshold="100" friendlyPos="x" id="e2det_2_100_-2003_0" lane="-2003_0" length="59.95666666666666" pos="-120.5133333333333"/>
    <laneAreaDetector file="e2output.xml" freq="60" speedThreshold="10" friendlyPos="x" id="e2det_0_10_402_0" lane="402_0" length="127.06666666666666" pos="1.1379786002407855e-14"/>
    <laneAreaDetector file="e2output.xml" freq="60" speedThreshold="20" friendlyPos="x" id="e2det_0_20_402_0" lane="402_0" length="127.06666666666666" pos="1.1379786002407855e-14"/>
    <laneAreaDetector file="e2output.xml" freq="60" speedThreshold="100" friendlyPos="x" id="e2det_0_100_402_0" lane="402_0" length="127.06666666666666" pos="1.1379786002407855e-14"/>
    <laneAreaDetector file="e2output.xml" freq="60" speedThreshold="10" friendlyPos="x" id="e2det_1_10_402_0" lane="402_0" length="127.06666666666666" pos="-127.36666666666665"/>
    <laneAreaDetector file="e2output.xml" freq="60" speedThreshold="20" friendlyPos="x" id="e2det_1_20_402_0" lane="402_0" length="127.06666666666666" pos="-127.36666666666665"/>
    <laneAreaDetector file="e2output.xml" freq="60" speedThreshold="100" friendlyPos="x" id="e2det_1_100_402_0" lane="402_0" length="127.06666666666666" pos="-127.36666666666665"/>
    <laneAreaDetector file="e2output.xml" freq="60" speedThreshold="10" friendlyPos="x" id="e2det_2_10_402_0" lane="402_0" length="127.06666666666666" pos="-254.73333333333332"/>
    <laneAreaDetector file="e2output.xml" freq="60" speedThreshold="20" friendlyPos="x" id="e2det_2_20_402_0" lane="402_0" length="127.06666666666666" pos="-254.73333333333332"/>
    <laneAreaDetector file="e2output.xml" freq="60" speedThreshold="100" friendlyPos="x" id="e2det_2_100_402_0" lane="402_0" length="127.06666666666666" pos="-254.73333333333332"/>
    <laneAreaDetector file="e2output.xml" freq="60" speedThreshold="10" friendlyPos="x" id="e2det_0_10_-11_0" lane="-11_0" length="61.46666666666666" pos="1.1379786002407855e-14"/>
    <laneAreaDetector file="e2output.xml" freq="60" speedThreshold="20" friendlyPos="x" id="e2det_0_20_-11_0" lane="-11_0" length="61.46666666666666" pos="1.1379786002407855e-14"/>
    <laneAreaDetector file="e2output.xml" freq="60" speedThreshold="100" friendlyPos="x" id="e2det_0_100_-11_0" lane="-11_0" length="61.46666666666666" pos="1.1379786002407855e-14"/>
    <laneAreaDetector file="e2output.xml" freq="60" speedThreshold="10" friendlyPos="x" id="e2det_1_10_-11_0" lane="-11_0" length="61.46666666666666" pos="-61.766666666666644"/>
    <laneAreaDetector file="e2output.xml" freq="60" speedThreshold="20" friendlyPos="x" id="e2det_1_20_-11_0" lane="-11_0" length="61.46666666666666" pos="-61.766666666666644"/>
    <laneAreaDetector file="e2output.xml" freq="60" speedThreshold="100" friendlyPos="x" id="e2det_1_100_-11_0" lane="-11_0" length="61.46666666666666" pos="-61.766666666666644"/>
    <laneAreaDetector file="e2output.xml" freq="60" speedThreshold="10" friendlyPos="x" id="e2det_2_10_-11_0" lane="-11_0" length="61.46666666666666" pos="-123.5333333333333"/>
    <laneAreaDetector file="e2output.xml" freq="60" speedThreshold="20" friendlyPos="x" id="e2det_2_20_-11_0" lane="-11_0" length="61.46666666666666" pos="-123.5333333333333"/>
    <laneAreaDetector file="e2output.xml" freq="60" speedThreshold="100" friendlyPos="x" id="e2det_2_100_-11_0" lane="-11_0" length="61.46666666666666" pos="-123.5333333333333"/>
    <laneAreaDetector file="e2output.xml" freq="60" speedThreshold="10" friendlyPos="x" id="e2det_0_10_-15_0" lane="-15_0" length="261.4666666666667" pos="0.0"/>
    <laneAreaDetector file="e2output.xml" freq="60" speedThreshold="20" friendlyPos="x" id="e2det_0_20_-15_0" lane="-15_0" length="261.4666666666667" pos="0.0"/>
    <laneAreaDetector file="e2output.xml" freq="60" speedThreshold="100" friendlyPos="x" id="e2det_0_100_-15_0" lane="-15_0" length="261.4666666666667" pos="0.0"/>
    <laneAreaDetector file="e2output.xml" freq="60" speedThreshold="10" friendlyPos="x" id="e2det_1_10_-15_0" lane="-15_0" length="261.4666666666667" pos="-261.7666666666667"/>
    <laneAreaDetector file="e2output.xml" freq="60" speedThreshold="20" friendlyPos="x" id="e2det_1_20_-15_0" lane="-15_0" length="261.4666666666667" pos="-261.7666666666667"/>
    <laneAreaDetector file="e2output.xml" freq="60" speedThreshold="100" friendlyPos="x" id="e2det_1_100_-15_0" lane="-15_0" length="261.4666666666667" pos="-261.7666666666667"/>
    <laneAreaDetector file="e2output.xml" freq="60" speedThreshold="10" friendlyPos="x" id="e2det_2_10_-15_0" lane="-15_0" length="261.4666666666667" pos="-523.5333333333334"/>
    <laneAreaDetector file="e2output.xml" freq="60" speedThreshold="20" friendlyPos="x" id="e2det_2_20_-15_0" lane="-15_0" length="261.4666666666667" pos="-523.5333333333334"/>
    <laneAreaDetector file="e2output.xml" freq="60" speedThreshold="100" friendlyPos="x" id="e2det_2_100_-15_0" lane="-15_0" length="261.4666666666667" pos="-523.5333333333334"/>
    <laneAreaDetector file="e2output.xml" freq="60" speedThreshold="10" friendlyPos="x" id="e2det_0_10_-3_0" lane="-3_0" length="262.09000000000003" pos="0.0"/>
    <laneAreaDetector file="e2output.xml" freq="60" speedThreshold="20" friendlyPos="x" id="e2det_0_20_-3_0" lane="-3_0" length="262.09000000000003" pos="0.0"/>
    <laneAreaDetector file="e2output.xml" freq="60" speedThreshold="100" friendlyPos="x" id="e2det_0_100_-3_0" lane="-3_0" length="262.09000000000003" pos="0.0"/>
    <laneAreaDetector file="e2output.xml" freq="60" speedThreshold="10" friendlyPos="x" id="e2det_1_10_-3_0" lane="-3_0" length="262.09000000000003" pos="-262.39000000000004"/>
    <laneAreaDetector file="e2output.xml" freq="60" speedThreshold="20" friendlyPos="x" id="e2det_1_20_-3_0" lane="-3_0" length="262.09000000000003" pos="-262.39000000000004"/>
    <laneAreaDetector file="e2output.xml" freq="60" speedThreshold="100" friendlyPos="x" id="e2det_1_100_-3_0" lane="-3_0" length="262.09000000000003" pos="-262.39000000000004"/>
    <laneAreaDetector file="e2output.xml" freq="60" speedThreshold="10" friendlyPos="x" id="e2det_2_10_-3_0" lane="-3_0" length="262.09000000000003" pos="-524.7800000000001"/>
    <laneAreaDetector file="e2output.xml" freq="60" speedThreshold="20" friendlyPos="x" id="e2det_2_20_-3_0" lane="-3_0" length="262.09000000000003" pos="-524.7800000000001"/>
    <laneAreaDetector file="e2output.xml" freq="60" speedThreshold="100" friendlyPos="x" id="e2det_2_100_-3_0" lane="-3_0" length="262.09000000000003" pos="-524.7800000000001"/>
    <laneAreaDetector file="e2output.xml" freq="60" speedThreshold="10" friendlyPos="x" id="e2det_0_10_-5_0" lane="-5_0" length="194.8" pos="0.0"/>
    <laneAreaDetector file="e2output.xml" freq="60" speedThreshold="20" friendlyPos="x" id="e2det_0_20_-5_0" lane="-5_0" length="194.8" pos="0.0"/>
    <laneAreaDetector file="e2output.xml" freq="60" speedThreshold="100" friendlyPos="x" id="e2det_0_100_-5_0" lane="-5_0" length="194.8" pos="0.0"/>
    <laneAreaDetector file="e2output.xml" freq="60" speedThreshold="10" friendlyPos="x" id="e2det_1_10_-5_0" lane="-5_0" length="194.8" pos="-195.10000000000002"/>
    <laneAreaDetector file="e2output.xml" freq="60" speedThreshold="20" friendlyPos="x" id="e2det_1_20_-5_0" lane="-5_0" length="194.8" pos="-195.10000000000002"/>
    <laneAreaDetector file="e2output.xml" freq="60" speedThreshold="100" friendlyPos="x" id="e2det_1_100_-5_0" lane="-5_0" length="194.8" pos="-195.10000000000002"/>
    <laneAreaDetector file="e2output.xml" freq="60" speedThreshold="10" friendlyPos="x" id="e2det_2_10_-5_0" lane="-5_0" length="194.8" pos="-390.20000000000005"/>
    <laneAreaDetector file="e2output.xml" freq="60" speedThreshold="20" friendlyPos="x" id="e2det_2_20_-5_0" lane="-5_0" length="194.8" pos="-390.20000000000005"/>
    <laneAreaDetector file="e2output.xml" freq="60" speedThreshold="100" friendlyPos="x" id="e2det_2_100_-5_0" lane="-5_0" length="194.8" pos="-390.20000000000005"/>
    <laneAreaDetector file="e2output.xml" freq="60" speedThreshold="10" friendlyPos="x" id="e2det_0_10_-1144_0" lane="-1144_0" length="63.866666666666674" pos="1.1379786002407855e-14"/>
    <laneAreaDetector file="e2output.xml" freq="60" speedThreshold="20" friendlyPos="x" id="e2det_0_20_-1144_0" lane="-1144_0" length="63.866666666666674" pos="1.1379786002407855e-14"/>
    <laneAreaDetector file="e2output.xml" freq="60" speedThreshold="100" friendlyPos="x" id="e2det_0_100_-1144_0" lane="-1144_0" length="63.866666666666674" pos="1.1379786002407855e-14"/>
    <laneAreaDetector file="e2output.xml" freq="60" speedThreshold="10" friendlyPos="x" id="e2det_1_10_-1144_0" lane="-1144_0" length="63.866666666666674" pos="-64.16666666666666"/>
    <laneAreaDetector file="e2output.xml" freq="60" speedThreshold="20" friendlyPos="x" id="e2det_1_20_-1144_0" lane="-1144_0" length="63.866666666666674" pos="-64.16666666666666"/>
    <laneAreaDetector file="e2output.xml" freq="60" speedThreshold="100" friendlyPos="x" id="e2det_1_100_-1144_0" lane="-1144_0" length="63.866666666666674" pos="-64.16666666666666"/>
    <laneAreaDetector file="e2output.xml" freq="60" speedThreshold="10" friendlyPos="x" id="e2det_2_10_-1144_0" lane="-1144_0" length="63.866666666666674" pos="-128.33333333333334"/>
    <laneAreaDetector file="e2output.xml" freq="60" speedThreshold="20" friendlyPos="x" id="e2det_2_20_-1144_0" lane="-1144_0" length="63.866666666666674" pos="-128.33333333333334"/>
    <laneAreaDetector file="e2output.xml" freq="60" speedThreshold="100" friendlyPos="x" id="e2det_2_100_-1144_0" lane="-1144_0" length="63.866666666666674" pos="-128.33333333333334"/>
    <laneAreaDetector file="e2output.xml" freq="60" speedThreshold="10" friendlyPos="x" id="e2det_0_10_962_0" lane="962_0" length="197.2" pos="0.0"/>
    <laneAreaDetector file="e2output.xml" freq="60" speedThreshold="20" friendlyPos="x" id="e2det_0_20_962_0" lane="962_0" length="197.2" pos="0.0"/>
    <laneAreaDetector file="e2output.xml" freq="60" speedThreshold="100" friendlyPos="x" id="e2det_0_100_962_0" lane="962_0" length="197.2" pos="0.0"/>
    <laneAreaDetector file="e2output.xml" freq="60" speedThreshold="10" friendlyPos="x" id="e2det_1_10_962_0" lane="962_0" length="197.2" pos="-197.5"/>
    <laneAreaDetector file="e2output.xml" freq="60" speedThreshold="20" friendlyPos="x" id="e2det_1_20_962_0" lane="962_0" length="197.2" pos="-197.5"/>
    <laneAreaDetector file="e2output.xml" freq="60" speedThreshold="100" friendlyPos="x" id="e2det_1_100_962_0" lane="962_0" length="197.2" pos="-197.5"/>
    <laneAreaDetector file="e2output.xml" freq="60" speedThreshold="10" friendlyPos="x" id="e2det_2_10_962_0" lane="962_0" length="197.2" pos="-395.0"/>
    <laneAreaDetector file="e2output.xml" freq="60" speedThreshold="20" friendlyPos="x" id="e2det_2_20_962_0" lane="962_0" length="197.2" pos="-395.0"/>
    <laneAreaDetector file="e2output.xml" freq="60" speedThreshold="100" friendlyPos="x" id="e2det_2_100_962_0" lane="962_0" length="197.2" pos="-395.0"/>
    <laneAreaDetector file="e2output.xml" freq="60" speedThreshold="10" friendlyPos="x" id="e2det_0_10_-1171_0" lane="-1171_0" length="194.38666666666668" pos="0.0"/>
    <laneAreaDetector file="e2output.xml" freq="60" speedThreshold="20" friendlyPos="x" id="e2det_0_20_-1171_0" lane="-1171_0" length="194.38666666666668" pos="0.0"/>
    <laneAreaDetector file="e2output.xml" freq="60" speedThreshold="100" friendlyPos="x" id="e2det_0_100_-1171_0" lane="-1171_0" length="194.38666666666668" pos="0.0"/>
    <laneAreaDetector file="e2output.xml" freq="60" speedThreshold="10" friendlyPos="x" id="e2det_1_10_-1171_0" lane="-1171_0" length="194.38666666666668" pos="-194.6866666666667"/>
    <laneAreaDetector file="e2output.xml" freq="60" speedThreshold="20" friendlyPos="x" id="e2det_1_20_-1171_0" lane="-1171_0" length="194.38666666666668" pos="-194.6866666666667"/>
    <laneAreaDetector file="e2output.xml" freq="60" speedThreshold="100" friendlyPos="x" id="e2det_1_100_-1171_0" lane="-1171_0" length="194.38666666666668" pos="-194.6866666666667"/>
    <laneAreaDetector file="e2output.xml" freq="60" speedThreshold="10" friendlyPos="x" id="e2det_2_10_-1171_0" lane="-1171_0" length="194.38666666666668" pos="-389.3733333333334"/>
    <laneAreaDetector file="e2output.xml" freq="60" speedThreshold="20" friendlyPos="x" id="e2det_2_20_-1171_0" lane="-1171_0" length="194.38666666666668" pos="-389.3733333333334"/>
    <laneAreaDetector file="e2output.xml" freq="60" speedThreshold="100" friendlyPos="x" id="e2det_2_100_-1171_0" lane="-1171_0" length="194.38666666666668" pos="-389.3733333333334"/>
    <laneAreaDetector file="e2output.xml" freq="60" speedThreshold="10" friendlyPos="x" id="e2det_0_10_-270_0" lane="-270_0" length="194.8" pos="0.0"/>
    <laneAreaDetector file="e2output.xml" freq="60" speedThreshold="20" friendlyPos="x" id="e2det_0_20_-270_0" lane="-270_0" length="194.8" pos="0.0"/>
    <laneAreaDetector file="e2output.xml" freq="60" speedThreshold="100" friendlyPos="x" id="e2det_0_100_-270_0" lane="-270_0" length="194.8" pos="0.0"/>
    <laneAreaDetector file="e2output.xml" freq="60" speedThreshold="10" friendlyPos="x" id="e2det_1_10_-270_0" lane="-270_0" length="194.8" pos="-195.10000000000002"/>
    <laneAreaDetector file="e2output.xml" freq="60" speedThreshold="20" friendlyPos="x" id="e2det_1_20_-270_0" lane="-270_0" length="194.8" pos="-195.10000000000002"/>
    <laneAreaDetector file="e2output.xml" freq="60" speedThreshold="100" friendlyPos="x" id="e2det_1_100_-270_0" lane="-270_0" length="194.8" pos="-195.10000000000002"/>
    <laneAreaDetector file="e2output.xml" freq="60" speedThreshold="10" friendlyPos="x" id="e2det_2_10_-270_0" lane="-270_0" length="194.8" pos="-390.20000000000005"/>
    <laneAreaDetector file="e2output.xml" freq="60" speedThreshold="20" friendlyPos="x" id="e2det_2_20_-270_0" lane="-270_0" length="194.8" pos="-390.20000000000005"/>
    <laneAreaDetector file="e2output.xml" freq="60" speedThreshold="100" friendlyPos="x" id="e2det_2_100_-270_0" lane="-270_0" length="194.8" pos="-390.20000000000005"/>
    <laneAreaDetector file="e2output.xml" freq="60" speedThreshold="10" friendlyPos="x" id="e2det_0_10_-339_0" lane="-339_0" length="128.13333333333333" pos="1.1379786002407855e-14"/>
    <laneAreaDetector file="e2output.xml" freq="60" speedThreshold="20" friendlyPos="x" id="e2det_0_20_-339_0" lane="-339_0" length="128.13333333333333" pos="1.1379786002407855e-14"/>
    <laneAreaDetector file="e2output.xml" freq="60" speedThreshold="100" friendlyPos="x" id="e2det_0_100_-339_0" lane="-339_0" length="128.13333333333333" pos="1.1379786002407855e-14"/>
    <laneAreaDetector file="e2output.xml" freq="60" speedThreshold="10" friendlyPos="x" id="e2det_1_10_-339_0" lane="-339_0" length="128.13333333333333" pos="-128.43333333333334"/>
    <laneAreaDetector file="e2output.xml" freq="60" speedThreshold="20" friendlyPos="x" id="e2det_1_20_-339_0" lane="-339_0" length="128.13333333333333" pos="-128.43333333333334"/>
    <laneAreaDetector file="e2output.xml" freq="60" speedThreshold="100" friendlyPos="x" id="e2det_1_100_-339_0" lane="-339_0" length="128.13333333333333" pos="-128.43333333333334"/>
    <laneAreaDetector file="e2output.xml" freq="60" speedThreshold="10" friendlyPos="x" id="e2det_2_10_-339_0" lane="-339_0" length="128.13333333333333" pos="-256.8666666666667"/>