<?xml version="1.0" encoding="UTF-8"?>

<!-- generated on 2021-07-16 01:59:43 by Eclipse SUMO netedit Version 1.9.2
<configuration xmlns:xsi="http://www.w3.org/2001/XMLSchema-instance" xsi:noNamespaceSchemaLocation="http://sumo.dlr.de/xsd/netconvertConfiguration.xsd">

    <input>
        <sumo-net-file value="map.net.xml"/>
    </input>

    <output>
        <output-file value="map.net.xml"/>
    </output>

    <processing>
        <geometry.min-radius.fix.railways value="false"/>
        <geometry.max-grade.fix value="false"/>
        <offset.disable-normalization value="true"/>
        <lefthand value="false"/>
    </processing>

    <junctions>
        <no-turnarounds value="true"/>
        <junctions.corner-detail value="5"/>
        <junctions.limit-turn-speed value="5.5"/>
        <rectangular-lane-cut value="false"/>
    </junctions>

    <pedestrian>
        <walkingareas value="false"/>
    </pedestrian>

    <report>
        <aggregate-warnings value="5"/>
    </report>

</configuration>
-->

<net version="1.9" junctionCornerDetail="5" limitTurnSpeed="5.50" xmlns:xsi="http://www.w3.org/2001/XMLSchema-instance" xsi:noNamespaceSchemaLocation="http://sumo.dlr.de/xsd/net_file.xsd">

    <location netOffset="5000.00,6600.00" convBoundary="1600.00,1600.00,9800.00,9600.00" origBoundary="-5000.00,-6600.00,4800.00,3000.00" projParameter="!"/>

    <type id="two_lane" numLanes="2" speed="44.00"/>

    <edge id=":1_0" function="internal">
        <lane id=":1_0_0" index="0" speed="6.51" length="9.03" shape="4995.20,6610.40 4994.85,6607.95 4993.80,6606.20 4992.05,6605.15 4989.60,6604.80"/>
    </edge>
    <edge id=":1_1" function="internal">
        <lane id=":1_1_0" index="0" speed="28.95" length="20.80" shape="4995.20,6610.40 4995.20,6589.60"/>
        <lane id=":1_1_1" index="1" speed="28.95" length="20.80" shape="4998.40,6610.40 4998.40,6589.60"/>
    </edge>
    <edge id=":1_3" function="internal">
        <lane id=":1_3_0" index="0" speed="9.26" length="6.96" shape="4998.40,6610.40 4999.15,6605.15 5000.00,6603.73"/>
    </edge>
    <edge id=":1_16" function="internal">
        <lane id=":1_16_0" index="0" speed="9.26" length="12.40" shape="5000.00,6603.73 5001.40,6601.40 5005.15,6599.15 5010.40,6598.40"/>
    </edge>
    <edge id=":1_4" function="internal">
        <lane id=":1_4_0" index="0" speed="6.51" length="9.03" shape="5010.40,6604.80 5007.95,6605.15 5006.20,6606.20 5005.15,6607.95 5004.80,6610.40"/>
    </edge>
    <edge id=":1_5" function="internal">
        <lane id=":1_5_0" index="0" speed="28.95" length="20.80" shape="5010.40,6604.80 4989.60,6604.80"/>
        <lane id=":1_5_1" index="1" speed="28.95" length="20.80" shape="5010.40,6601.60 4989.60,6601.60"/>
    </edge>
    <edge id=":1_7" function="internal">
        <lane id=":1_7_0" index="0" speed="9.26" length="6.96" shape="5010.40,6601.60 5005.15,6600.85 5003.73,6600.00"/>
    </edge>
    <edge id=":1_17" function="internal">
        <lane id=":1_17_0" index="0" speed="9.26" length="12.40" shape="5003.73,6600.00 5001.40,6598.60 4999.15,6594.85 4998.40,6589.60"/>
    </edge>
    <edge id=":1_8" function="internal">
        <lane id=":1_8_0" index="0" speed="6.51" length="9.03" shape="5004.80,6589.60 5005.15,6592.05 5006.20,6593.80 5007.95,6594.85 5010.40,6595.20"/>
    </edge>
    <edge id=":1_9" function="internal">
        <lane id=":1_9_0" index="0" speed="28.95" length="20.80" shape="5004.80,6589.60 5004.80,6610.40"/>
        <lane id=":1_9_1" index="1" speed="28.95" length="20.80" shape="5001.60,6589.60 5001.60,6610.40"/>
    </edge>
    <edge id=":1_11" function="internal">
        <lane id=":1_11_0" index="0" speed="9.26" length="6.96" shape="5001.60,6589.60 5000.85,6594.85 5000.00,6596.27"/>
    </edge>
    <edge id=":1_18" function="internal">
        <lane id=":1_18_0" index="0" speed="9.26" length="12.40" shape="5000.00,6596.27 4998.60,6598.60 4994.85,6600.85 4989.60,6601.60"/>
    </edge>
    <edge id=":1_12" function="internal">
        <lane id=":1_12_0" index="0" speed="6.51" length="9.03" shape="4989.60,6595.20 4992.05,6594.85 4993.80,6593.80 4994.85,6592.05 4995.20,6589.60"/>
    </edge>
    <edge id=":1_13" function="internal">
        <lane id=":1_13_0" index="0" speed="28.95" length="20.80" shape="4989.60,6595.20 5010.40,6595.20"/>
        <lane id=":1_13_1" index="1" speed="28.95" length="20.80" shape="4989.60,6598.40 5010.40,6598.40"/>
    </edge>
    <edge id=":1_15" function="internal">
        <lane id=":1_15_0" index="0" speed="9.26" length="6.96" shape="4989.60,6598.40 4994.85,6599.15 4996.27,6600.00"/>
    </edge>
    <edge id=":1_19" function="internal">
        <lane id=":1_19_0" index="0" speed="9.26" length="12.40" shape="4996.27,6600.00 4998.60,6601.40 5000.85,6605.15 5001.60,6610.40"/>
    </edge>
    <edge id=":10_0" function="internal">
        <lane id=":10_0_0" index="0" speed="6.51" length="9.03" shape="4795.20,6610.40 4794.85,6607.95 4793.80,6606.20 4792.05,6605.15 4789.60,6604.80"/>
    </edge>
    <edge id=":10_1" function="internal">
        <lane id=":10_1_0" index="0" speed="28.95" length="20.80" shape="4795.20,6610.40 4795.20,6589.60"/>
        <lane id=":10_1_1" index="1" speed="28.95" length="20.80" shape="4798.40,6610.40 4798.40,6589.60"/>
    </edge>
    <edge id=":10_3" function="internal">
        <lane id=":10_3_0" index="0" speed="9.26" length="6.96" shape="4798.40,6610.40 4799.15,6605.15 4800.00,6603.73"/>
    </edge>
    <edge id=":10_16" function="internal">
        <lane id=":10_16_0" index="0" speed="9.26" length="12.40" shape="4800.00,6603.73 4801.40,6601.40 4805.15,6599.15 4810.40,6598.40"/>
    </edge>
    <edge id=":10_4" function="internal">
        <lane id=":10_4_0" index="0" speed="6.51" length="9.03" shape="4810.40,6604.80 4807.95,6605.15 4806.20,6606.20 4805.15,6607.95 4804.80,6610.40"/>
    </edge>
    <edge id=":10_5" function="internal">
        <lane id=":10_5_0" index="0" speed="44.00" length="20.80" shape="4810.40,6604.80 4789.60,6604.80"/>
        <lane id=":10_5_1" index="1" speed="44.00" length="20.80" shape="4810.40,6601.60 4789.60,6601.60"/>
    </edge>
    <edge id=":10_7" function="internal">
        <lane id=":10_7_0" index="0" speed="9.26" length="6.96" shape="4810.40,6601.60 4805.15,6600.85 4803.73,6600.00"/>
    </edge>
    <edge id=":10_17" function="internal">
        <lane id=":10_17_0" index="0" speed="9.26" length="12.40" shape="4803.73,6600.00 4801.40,6598.60 4799.15,6594.85 4798.40,6589.60"/>
    </edge>
    <edge id=":10_8" function="internal">
        <lane id=":10_8_0" index="0" speed="6.51" length="9.03" shape="4804.80,6589.60 4805.15,6592.05 4806.20,6593.80 4807.95,6594.85 4810.40,6595.20"/>
    </edge>
    <edge id=":10_9" function="internal">
        <lane id=":10_9_0" index="0" speed="28.95" length="20.80" shape="4804.80,6589.60 4804.80,6610.40"/>
        <lane id=":10_9_1" index="1" speed="28.95" length="20.80" shape="4801.60,6589.60 4801.60,6610.40"/>
    </edge>
    <edge id=":10_11" function="internal">
        <lane id=":10_11_0" index="0" speed="9.26" length="6.96" shape="4801.60,6589.60 4800.85,6594.85 4800.00,6596.27"/>
    </edge>
    <edge id=":10_18" function="internal">
        <lane id=":10_18_0" index="0" speed="9.26" length="12.40" shape="4800.00,6596.27 4798.60,6598.60 4794.85,6600.85 4789.60,6601.60"/>
    </edge>
    <edge id=":10_12" function="internal">
        <lane id=":10_12_0" index="0" speed="6.51" length="9.03" shape="4789.60,6595.20 4792.05,6594.85 4793.80,6593.80 4794.85,6592.05 4795.20,6589.60"/>
    </edge>
    <edge id=":10_13" function="internal">
        <lane id=":10_13_0" index="0" speed="13.89" length="20.80" shape="4789.60,6595.20 4810.40,6595.20"/>
        <lane id=":10_13_1" index="1" speed="13.89" length="20.80" shape="4789.60,6598.40 4810.40,6598.40"/>
    </edge>
    <edge id=":10_15" function="internal">
        <lane id=":10_15_0" index="0" speed="9.26" length="6.96" shape="4789.60,6598.40 4794.85,6599.15 4796.27,6600.00"/>
    </edge>
    <edge id=":10_19" function="internal">
        <lane id=":10_19_0" index="0" speed="9.26" length="12.40" shape="4796.27,6600.00 4798.60,6601.40 4800.85,6605.15 4801.60,6610.40"/>
    </edge>
    <edge id=":1020_0" function="internal">
        <lane id=":1020_0_0" index="0" speed="6.51" length="9.03" shape="5995.20,2410.40 5994.85,2407.95 5993.80,2406.20 5992.05,2405.15 5989.60,2404.80"/>
    </edge>
    <edge id=":1020_1" function="internal">
        <lane id=":1020_1_0" index="0" speed="28.95" length="20.80" shape="5995.20,2410.40 5995.20,2389.60"/>
        <lane id=":1020_1_1" index="1" speed="28.95" length="20.80" shape="5998.40,2410.40 5998.40,2389.60"/>
    </edge>
    <edge id=":1020_3" function="internal">
        <lane id=":1020_3_0" index="0" speed="28.95" length="20.80" shape="6004.80,2389.60 6004.80,2410.40"/>
        <lane id=":1020_3_1" index="1" speed="28.95" length="20.80" shape="6001.60,2389.60 6001.60,2410.40"/>
    </edge>
    <edge id=":1020_5" function="internal">
        <lane id=":1020_5_0" index="0" speed="9.26" length="6.96" shape="6001.60,2389.60 6000.85,2394.85 6000.00,2396.27"/>
    </edge>
    <edge id=":1020_9" function="internal">
        <lane id=":1020_9_0" index="0" speed="9.26" length="12.40" shape="6000.00,2396.27 5998.60,2398.60 5994.85,2400.85 5989.60,2401.60"/>
    </edge>
    <edge id=":1020_6" function="internal">
        <lane id=":1020_6_0" index="0" speed="6.51" length="9.03" shape="5989.60,2395.20 5992.05,2394.85 5993.80,2393.80 5994.85,2392.05 5995.20,2389.60"/>
        <lane id=":1020_6_1" index="1" speed="8.00" length="14.19" shape="5989.60,2398.40 5993.45,2397.85 5996.20,2396.20 5997.85,2393.45 5998.40,2389.60"/>
    </edge>
    <edge id=":1020_8" function="internal">
        <lane id=":1020_8_0" index="0" speed="9.26" length="19.35" shape="5989.60,2398.40 5994.85,2399.15 5998.60,2401.40 6000.85,2405.15 6001.60,2410.40"/>
    </edge>
    <edge id=":1024_0" function="internal">
        <lane id=":1024_0_0" index="0" speed="44.00" length="22.31" shape="5195.20,1814.36 5195.20,1792.04"/>
        <lane id=":1024_0_1" index="1" speed="44.00" length="22.31" shape="5198.40,1814.36 5198.40,1792.04"/>
    </edge>
    <edge id=":1024_2" function="internal">
        <lane id=":1024_2_0" index="0" speed="8.81" length="8.11" shape="5198.40,1814.36 5199.35,1807.42 5200.00,1806.53"/>
    </edge>
    <edge id=":1024_8" function="internal">
        <lane id=":1024_8_0" index="0" speed="8.81" length="15.51" shape="5200.00,1806.53 5202.19,1803.54 5206.92,1802.73 5213.56,1804.99"/>
    </edge>
    <edge id=":1024_3" function="internal">
        <lane id=":1024_3_0" index="0" speed="5.74" length="9.18" shape="5210.69,1810.71 5208.11,1809.84 5206.27,1810.15 5205.17,1811.66 5204.80,1814.36"/>
    </edge>
    <edge id=":1024_4" function="internal">
        <lane id=":1024_4_0" index="0" speed="12.14" length="21.98" shape="5212.12,1807.85 5206.12,1804.29 5201.83,1800.47 5199.26,1796.39 5198.40,1792.04"/>
    </edge>
    <edge id=":1024_5" function="internal">
        <lane id=":1024_5_0" index="0" speed="10.08" length="14.93" shape="5204.80,1792.04 5205.44,1794.55 5207.35,1797.06 5210.53,1799.59 5214.99,1802.13"/>
    </edge>
    <edge id=":1024_6" function="internal">
        <lane id=":1024_6_0" index="0" speed="13.89" length="22.31" shape="5204.80,1792.04 5204.80,1814.36"/>
        <lane id=":1024_6_1" index="1" speed="13.89" length="22.31" shape="5201.60,1792.04 5201.60,1814.36"/>
    </edge>
    <edge id=":1026_0" function="internal">
        <lane id=":1026_0_0" index="0" speed="9.11" length="15.22" shape="4610.43,2404.80 4607.34,2405.46 4604.76,2407.45 4602.68,2410.76 4601.10,2415.39"/>
    </edge>
    <edge id=":1026_1" function="internal">
        <lane id=":1026_1_0" index="0" speed="44.00" length="24.21" shape="4610.43,2404.80 4603.90,2404.99 4598.57,2405.60 4593.29,2406.66 4586.94,2408.21"/>
        <lane id=":1026_1_1" index="1" speed="44.00" length="24.21" shape="4610.43,2401.60 4603.78,2401.81 4598.18,2402.45 4592.64,2403.54 4586.16,2405.11"/>
    </edge>
    <edge id=":1026_3" function="internal">
        <lane id=":1026_3_0" index="0" speed="9.25" length="6.56" shape="4610.43,2401.60 4605.16,2400.85 4604.10,2400.21"/>
    </edge>
    <edge id=":1026_16" function="internal">
        <lane id=":1026_16_0" index="0" speed="9.25" length="12.83" shape="4604.10,2400.21 4601.41,2398.59 4599.17,2394.83 4598.44,2389.57"/>
    </edge>
    <edge id=":1026_4" function="internal">
        <lane id=":1026_4_0" index="0" speed="6.50" length="9.03" shape="4604.84,2389.59 4605.18,2392.05 4606.23,2393.80 4607.97,2394.85 4610.43,2395.20"/>
    </edge>
    <edge id=":1026_5" function="internal">
        <lane id=":1026_5_0" index="0" speed="28.95" length="25.76" shape="4604.84,2389.59 4604.58,2396.48 4603.87,2402.61 4602.70,2408.68 4601.10,2415.39"/>
        <lane id=":1026_5_1" index="1" speed="28.95" length="25.76" shape="4601.64,2389.58 4601.40,2396.35 4600.71,2402.21 4599.58,2408.02 4598.00,2414.62"/>
    </edge>
    <edge id=":1026_7" function="internal">
        <lane id=":1026_7_0" index="0" speed="11.30" length="6.96" shape="4601.64,2389.58 4600.66,2394.93 4599.81,2396.20"/>
    </edge>
    <edge id=":1026_17" function="internal">
        <lane id=":1026_17_0" index="0" speed="11.30" length="16.81" shape="4599.81,2396.20 4597.75,2399.30 4592.92,2402.69 4586.16,2405.11"/>
    </edge>
    <edge id=":1026_8" function="internal">
        <lane id=":1026_8_0" index="0" speed="9.14" length="15.26" shape="4584.61,2398.90 4589.25,2397.32 4592.57,2395.24 4594.57,2392.65 4595.24,2389.55"/>
    </edge>
    <edge id=":1026_9" function="internal">
        <lane id=":1026_9_0" index="0" speed="13.89" length="25.77" shape="4584.61,2398.90 4591.33,2397.30 4597.40,2396.14 4603.54,2395.44 4610.43,2395.20"/>
        <lane id=":1026_9_1" index="1" speed="13.89" length="25.77" shape="4585.38,2402.00 4591.98,2400.42 4597.79,2399.29 4603.66,2398.62 4610.43,2398.40"/>
    </edge>
    <edge id=":1026_11" function="internal">
        <lane id=":1026_11_0" index="0" speed="8.81" length="8.42" shape="4585.38,2402.00 4592.48,2401.22 4593.66,2401.70"/>
    </edge>
    <edge id=":1026_18" function="internal">
        <lane id=":1026_18_0" index="0" speed="8.81" length="15.52" shape="4593.66,2401.70 4596.94,2403.06 4598.78,2407.52 4598.00,2414.62"/>
    </edge>
    <edge id=":1026_12" function="internal">
        <lane id=":1026_12_0" index="0" speed="5.71" length="9.21" shape="4591.79,2413.06 4592.09,2410.34 4591.38,2408.62 4589.66,2407.91 4586.94,2408.21"/>
    </edge>
    <edge id=":1026_13" function="internal">
        <lane id=":1026_13_0" index="0" speed="44.00" length="24.23" shape="4591.79,2413.06 4593.34,2406.70 4594.41,2401.42 4595.03,2396.08 4595.24,2389.55"/>
        <lane id=":1026_13_1" index="1" speed="44.00" length="24.23" shape="4594.89,2413.84 4596.46,2407.36 4597.56,2401.82 4598.21,2396.21 4598.44,2389.57"/>
    </edge>
    <edge id=":1026_15" function="internal">
        <lane id=":1026_15_0" index="0" speed="11.28" length="9.16" shape="4594.89,2413.84 4597.31,2407.09 4598.45,2405.46"/>
    </edge>
    <edge id=":1026_19" function="internal">
        <lane id=":1026_19_0" index="0" speed="11.28" length="14.60" shape="4598.45,2405.46 4600.70,2402.26 4605.08,2399.37 4610.43,2398.40"/>
    </edge>
    <edge id=":1031_0" function="internal">
        <lane id=":1031_0_0" index="0" speed="28.95" length="20.80" shape="3795.20,3210.40 3795.20,3189.60"/>
        <lane id=":1031_0_1" index="1" speed="28.95" length="20.80" shape="3798.40,3210.40 3798.40,3189.60"/>
    </edge>
    <edge id=":1031_2" function="internal">
        <lane id=":1031_2_0" index="0" speed="9.26" length="6.96" shape="3798.40,3210.40 3799.15,3205.15 3800.00,3203.73"/>
    </edge>
    <edge id=":1031_9" function="internal">
        <lane id=":1031_9_0" index="0" speed="9.26" length="12.40" shape="3800.00,3203.73 3801.40,3201.40 3805.15,3199.15 3810.40,3198.40"/>
    </edge>
    <edge id=":1031_3" function="internal">
        <lane id=":1031_3_0" index="0" speed="6.51" length="9.03" shape="3810.40,3204.80 3807.95,3205.15 3806.20,3206.20 3805.15,3207.95 3804.80,3210.40"/>
        <lane id=":1031_3_1" index="1" speed="8.00" length="14.19" shape="3810.40,3201.60 3806.55,3202.15 3803.80,3203.80 3802.15,3206.55 3801.60,3210.40"/>
    </edge>
    <edge id=":1031_5" function="internal">
        <lane id=":1031_5_0" index="0" speed="9.26" length="19.35" shape="3810.40,3201.60 3805.15,3200.85 3801.40,3198.60 3799.15,3194.85 3798.40,3189.60"/>
    </edge>
    <edge id=":1031_6" function="internal">
        <lane id=":1031_6_0" index="0" speed="6.51" length="9.03" shape="3804.80,3189.60 3805.15,3192.05 3806.20,3193.80 3807.95,3194.85 3810.40,3195.20"/>
    </edge>
    <edge id=":1031_7" function="internal">
        <lane id=":1031_7_0" index="0" speed="28.95" length="20.80" shape="3804.80,3189.60 3804.80,3210.40"/>
        <lane id=":1031_7_1" index="1" speed="28.95" length="20.80" shape="3801.60,3189.60 3801.60,3210.40"/>
    </edge>
    <edge id=":1035_0" function="internal">
        <lane id=":1035_0_0" index="0" speed="6.51" length="9.03" shape="4395.20,4010.40 4394.85,4007.95 4393.80,4006.20 4392.05,4005.15 4389.60,4004.80"/>
    </edge>
    <edge id=":1035_1" function="internal">
        <lane id=":1035_1_0" index="0" speed="13.89" length="20.80" shape="4395.20,4010.40 4395.20,3989.60"/>
        <lane id=":1035_1_1" index="1" speed="13.89" length="20.80" shape="4398.40,4010.40 4398.40,3989.60"/>
    </edge>
    <edge id=":1035_3" function="internal">
        <lane id=":1035_3_0" index="0" speed="44.00" length="20.80" shape="4404.80,3989.60 4404.80,4010.40"/>
        <lane id=":1035_3_1" index="1" speed="44.00" length="20.80" shape="4401.60,3989.60 4401.60,4010.40"/>
    </edge>
    <edge id=":1035_5" function="internal">
        <lane id=":1035_5_0" index="0" speed="9.26" length="6.96" shape="4401.60,3989.60 4400.85,3994.85 4400.00,3996.27"/>
    </edge>
    <edge id=":1035_9" function="internal">
        <lane id=":1035_9_0" index="0" speed="9.26" length="12.40" shape="4400.00,3996.27 4398.60,3998.60 4394.85,4000.85 4389.60,4001.60"/>
    </edge>
    <edge id=":1035_6" function="internal">
        <lane id=":1035_6_0" index="0" speed="6.51" length="9.03" shape="4389.60,3995.20 4392.05,3994.85 4393.80,3993.80 4394.85,3992.05 4395.20,3989.60"/>
        <lane id=":1035_6_1" index="1" speed="8.00" length="14.19" shape="4389.60,3998.40 4393.45,3997.85 4396.20,3996.20 4397.85,3993.45 4398.40,3989.60"/>
    </edge>
    <edge id=":1035_8" function="internal">
        <lane id=":1035_8_0" index="0" speed="9.26" length="19.35" shape="4389.60,3998.40 4394.85,3999.15 4398.60,4001.40 4400.85,4005.15 4401.60,4010.40"/>
    </edge>
    <edge id=":1046_0" function="internal">
        <lane id=":1046_0_0" index="0" speed="6.97" length="10.52" shape="7995.20,5410.40 7994.74,5407.95 7993.35,5406.20 7991.04,5405.15 7987.80,5404.80"/>
    </edge>
    <edge id=":1046_1" function="internal">
        <lane id=":1046_1_0" index="0" speed="28.95" length="21.73" shape="7995.20,5410.40 7995.10,5404.25 7994.70,5399.75 7993.85,5395.31 7992.39,5389.33"/>
        <lane id=":1046_1_1" index="1" speed="28.95" length="21.73" shape="7998.40,5410.40 7998.29,5404.13 7997.85,5399.37 7996.97,5394.66 7995.49,5388.56"/>
    </edge>
    <edge id=":1046_3" function="internal">
        <lane id=":1046_3_0" index="0" speed="9.26" length="6.68" shape="7998.40,5410.40 7999.15,5405.15 7999.86,5403.97"/>
    </edge>
    <edge id=":1046_16" function="internal">
        <lane id=":1046_16_0" index="0" speed="9.26" length="12.67" shape="7999.86,5403.97 8001.40,5401.40 8005.15,5399.15 8010.40,5398.40"/>
    </edge>
    <edge id=":1046_4" function="internal">
        <lane id=":1046_4_0" index="0" speed="6.51" length="9.03" shape="8010.40,5404.80 8007.95,5405.15 8006.20,5406.20 8005.15,5407.95 8004.80,5410.40"/>
    </edge>
    <edge id=":1046_5" function="internal">
        <lane id=":1046_5_0" index="0" speed="13.89" length="22.60" shape="8010.40,5404.80 7987.80,5404.80"/>
        <lane id=":1046_5_1" index="1" speed="13.89" length="22.60" shape="8010.40,5401.60 7987.80,5401.60"/>
    </edge>
    <edge id=":1046_7" function="internal">
        <lane id=":1046_7_0" index="0" speed="10.76" length="6.94" shape="8010.40,5401.60 8005.10,5400.78 8003.74,5400.00"/>
    </edge>
    <edge id=":1046_17" function="internal">
        <lane id=":1046_17_0" index="0" speed="10.76" length="14.62" shape="8003.74,5400.00 8000.85,5398.34 7997.64,5394.26 7995.49,5388.56"/>
    </edge>
    <edge id=":1046_8" function="internal">
        <lane id=":1046_8_0" index="0" speed="8.46" length="12.99" shape="8001.70,5387.00 8003.01,5390.59 8004.90,5393.15 8007.36,5394.69 8010.40,5395.20"/>
    </edge>
    <edge id=":1046_9" function="internal">
        <lane id=":1046_9_0" index="0" speed="28.95" length="23.29" shape="8001.70,5387.00 8003.21,5393.35 8004.16,5398.59 8004.66,5403.89 8004.80,5410.40"/>
        <lane id=":1046_9_1" index="1" speed="28.95" length="23.29" shape="7998.59,5387.78 8000.09,5394.00 8001.01,5398.98 8001.47,5404.01 8001.60,5410.40"/>
    </edge>
    <edge id=":1046_11" function="internal">
        <lane id=":1046_11_0" index="0" speed="8.94" length="7.56" shape="7998.59,5387.78 7999.22,5393.83 7998.70,5395.22"/>
    </edge>
    <edge id=":1046_18" function="internal">
        <lane id=":1046_18_0" index="0" speed="8.94" length="13.80" shape="7998.70,5395.22 7997.62,5398.14 7993.82,5400.74 7987.80,5401.60"/>
    </edge>
    <edge id=":1046_12" function="internal">
        <lane id=":1046_12_0" index="0" speed="6.04" length="9.07" shape="7987.80,5395.20 7990.36,5394.83 7991.97,5393.73 7992.65,5391.90 7992.39,5389.33"/>
    </edge>
    <edge id=":1046_13" function="internal">
        <lane id=":1046_13_0" index="0" speed="44.00" length="22.60" shape="7987.80,5395.20 8010.40,5395.20"/>
        <lane id=":1046_13_1" index="1" speed="44.00" length="22.60" shape="7987.80,5398.40 8010.40,5398.40"/>
    </edge>
    <edge id=":1046_15" function="internal">
        <lane id=":1046_15_0" index="0" speed="9.59" length="7.92" shape="7987.80,5398.40 7993.84,5399.15 7995.47,5400.00"/>
    </edge>
    <edge id=":1046_19" function="internal">
        <lane id=":1046_19_0" index="0" speed="9.59" length="12.90" shape="7995.47,5400.00 7998.15,5401.40 8000.74,5405.15 8001.60,5410.40"/>
    </edge>
    <edge id=":1074_0" function="internal">
        <lane id=":1074_0_0" index="0" speed="44.00" length="20.80" shape="4410.40,4404.80 4389.60,4404.80"/>
        <lane id=":1074_0_1" index="1" speed="44.00" length="20.80" shape="4410.40,4401.60 4389.60,4401.60"/>
    </edge>
    <edge id=":1074_2" function="internal">
        <lane id=":1074_2_0" index="0" speed="9.26" length="6.96" shape="4410.40,4401.60 4405.15,4400.85 4403.73,4400.00"/>
    </edge>
    <edge id=":1074_9" function="internal">
        <lane id=":1074_9_0" index="0" speed="9.26" length="12.40" shape="4403.73,4400.00 4401.40,4398.60 4399.15,4394.85 4398.40,4389.60"/>
    </edge>
    <edge id=":1074_3" function="internal">
        <lane id=":1074_3_0" index="0" speed="6.51" length="9.03" shape="4404.80,4389.60 4405.15,4392.05 4406.20,4393.80 4407.95,4394.85 4410.40,4395.20"/>
        <lane id=":1074_3_1" index="1" speed="8.00" length="14.19" shape="4401.60,4389.60 4402.15,4393.45 4403.80,4396.20 4406.55,4397.85 4410.40,4398.40"/>
    </edge>
    <edge id=":1074_5" function="internal">
        <lane id=":1074_5_0" index="0" speed="9.26" length="19.35" shape="4401.60,4389.60 4400.85,4394.85 4398.60,4398.60 4394.85,4400.85 4389.60,4401.60"/>
    </edge>
    <edge id=":1074_6" function="internal">
        <lane id=":1074_6_0" index="0" speed="6.51" length="9.03" shape="4389.60,4395.20 4392.05,4394.85 4393.80,4393.80 4394.85,4392.05 4395.20,4389.60"/>
    </edge>
    <edge id=":1074_7" function="internal">
        <lane id=":1074_7_0" index="0" speed="13.89" length="20.80" shape="4389.60,4395.20 4410.40,4395.20"/>
        <lane id=":1074_7_1" index="1" speed="13.89" length="20.80" shape="4389.60,4398.40 4410.40,4398.40"/>
    </edge>
    <edge id=":1083_0" function="internal">
        <lane id=":1083_0_0" index="0" speed="8.79" length="11.21" shape="5995.20,2210.40 5994.92,2207.01 5994.08,2204.27 5992.69,2202.18 5990.74,2200.74"/>
        <lane id=":1083_0_1" index="1" speed="10.02" length="14.76" shape="5998.40,2210.40 5998.01,2206.09 5996.84,2202.56 5994.90,2199.82 5992.17,2197.87"/>
    </edge>
    <edge id=":1083_2" function="internal">
        <lane id=":1083_2_0" index="0" speed="9.26" length="19.35" shape="5998.40,2210.40 5999.15,2205.15 6001.40,2201.40 6005.15,2199.15 6010.40,2198.40"/>
    </edge>
    <edge id=":1083_3" function="internal">
        <lane id=":1083_3_0" index="0" speed="6.51" length="9.03" shape="6010.40,2204.80 6007.95,2205.15 6006.20,2206.20 6005.15,2207.95 6004.80,2210.40"/>
    </edge>
    <edge id=":1083_4" function="internal">
        <lane id=":1083_4_0" index="0" speed="23.67" length="19.66" shape="6010.40,2204.80 6004.37,2204.79 6000.17,2204.44 5996.18,2203.26 5990.74,2200.74"/>
        <lane id=":1083_4_1" index="1" speed="22.80" length="19.66" shape="6010.40,2201.60 6004.80,2201.60 6000.92,2201.30 5997.22,2200.21 5992.17,2197.87"/>
    </edge>
    <edge id=":1083_6" function="internal">
        <lane id=":1083_6_0" index="0" speed="20.94" length="16.67" shape="5995.03,2192.15 5999.29,2194.10 6002.41,2194.99 6005.68,2195.22 6010.40,2195.20"/>
        <lane id=":1083_6_1" index="1" speed="21.89" length="16.67" shape="5993.60,2195.01 5998.25,2197.16 6001.66,2198.14 6005.24,2198.41 6010.40,2198.40"/>
    </edge>
    <edge id=":1083_8" function="internal">
        <lane id=":1083_8_0" index="0" speed="11.11" length="5.92" shape="5993.60,2195.01 5997.10,2197.47 5998.08,2198.79"/>
    </edge>
    <edge id=":1083_9" function="internal">
        <lane id=":1083_9_0" index="0" speed="11.11" length="12.38" shape="5998.08,2198.79 5999.60,2200.86 6001.10,2205.17 6001.60,2210.40"/>
    </edge>
    <edge id=":1089_0" function="internal">
        <lane id=":1089_0_0" index="0" speed="6.51" length="9.03" shape="3795.20,4010.40 3794.85,4007.95 3793.80,4006.20 3792.05,4005.15 3789.60,4004.80"/>
    </edge>
    <edge id=":1089_1" function="internal">
        <lane id=":1089_1_0" index="0" speed="13.89" length="20.80" shape="3795.20,4010.40 3795.20,3989.60"/>
        <lane id=":1089_1_1" index="1" speed="13.89" length="20.80" shape="3798.40,4010.40 3798.40,3989.60"/>
    </edge>
    <edge id=":1089_3" function="internal">
        <lane id=":1089_3_0" index="0" speed="9.26" length="6.96" shape="3798.40,4010.40 3799.15,4005.15 3800.00,4003.73"/>
    </edge>
    <edge id=":1089_16" function="internal">
        <lane id=":1089_16_0" index="0" speed="9.26" length="12.40" shape="3800.00,4003.73 3801.40,4001.40 3805.15,3999.15 3810.40,3998.40"/>
    </edge>
    <edge id=":1089_4" function="internal">
        <lane id=":1089_4_0" index="0" speed="6.51" length="9.03" shape="3810.40,4004.80 3807.95,4005.15 3806.20,4006.20 3805.15,4007.95 3804.80,4010.40"/>
    </edge>
    <edge id=":1089_5" function="internal">
        <lane id=":1089_5_0" index="0" speed="44.00" length="20.80" shape="3810.40,4004.80 3789.60,4004.80"/>
        <lane id=":1089_5_1" index="1" speed="44.00" length="20.80" shape="3810.40,4001.60 3789.60,4001.60"/>
    </edge>
    <edge id=":1089_7" function="internal">
        <lane id=":1089_7_0" index="0" speed="9.26" length="6.96" shape="3810.40,4001.60 3805.15,4000.85 3803.73,4000.00"/>
    </edge>
    <edge id=":1089_17" function="internal">
        <lane id=":1089_17_0" index="0" speed="9.26" length="12.40" shape="3803.73,4000.00 3801.40,3998.60 3799.15,3994.85 3798.40,3989.60"/>
    </edge>
    <edge id=":1089_8" function="internal">
        <lane id=":1089_8_0" index="0" speed="6.51" length="9.03" shape="3804.80,3989.60 3805.15,3992.05 3806.20,3993.80 3807.95,3994.85 3810.40,3995.20"/>
    </edge>
    <edge id=":1089_9" function="internal">
        <lane id=":1089_9_0" index="0" speed="44.00" length="20.80" shape="3804.80,3989.60 3804.80,4010.40"/>
        <lane id=":1089_9_1" index="1" speed="44.00" length="20.80" shape="3801.60,3989.60 3801.60,4010.40"/>
    </edge>
    <edge id=":1089_11" function="internal">
        <lane id=":1089_11_0" index="0" speed="9.26" length="6.96" shape="3801.60,3989.60 3800.85,3994.85 3800.00,3996.27"/>
    </edge>
    <edge id=":1089_18" function="internal">
        <lane id=":1089_18_0" index="0" speed="9.26" length="12.40" shape="3800.00,3996.27 3798.60,3998.60 3794.85,4000.85 3789.60,4001.60"/>
    </edge>
    <edge id=":1089_12" function="internal">
        <lane id=":1089_12_0" index="0" speed="6.51" length="9.03" shape="3789.60,3995.20 3792.05,3994.85 3793.80,3993.80 3794.85,3992.05 3795.20,3989.60"/>
    </edge>
    <edge id=":1089_13" function="internal">
        <lane id=":1089_13_0" index="0" speed="13.89" length="20.80" shape="3789.60,3995.20 3810.40,3995.20"/>
        <lane id=":1089_13_1" index="1" speed="13.89" length="20.80" shape="3789.60,3998.40 3810.40,3998.40"/>
    </edge>
    <edge id=":1089_15" function="internal">
        <lane id=":1089_15_0" index="0" speed="9.26" length="6.96" shape="3789.60,3998.40 3794.85,3999.15 3796.27,4000.00"/>
    </edge>
    <edge id=":1089_19" function="internal">
        <lane id=":1089_19_0" index="0" speed="9.26" length="12.40" shape="3796.27,4000.00 3798.60,4001.40 3800.85,4005.15 3801.60,4010.40"/>
    </edge>
    <edge id=":1091_0" function="internal">
        <lane id=":1091_0_0" index="0" speed="6.52" length="9.08" shape="3795.20,2610.40 3794.85,2607.95 3793.79,2606.20 3792.02,2605.15 3789.54,2604.80"/>
    </edge>
    <edge id=":1091_1" function="internal">
        <lane id=":1091_1_0" index="0" speed="44.00" length="22.49" shape="3795.20,2610.40 3795.09,2587.92"/>