<additional xmlns:xsi="http://www.w3.org/2001/XMLSchema-instance" xsi:noNamespaceSchemaLocation="http://sumo.dlr.de/xsd/additional_file.xsd">
    <laneAreaDetector file="e2output.xml" freq="60" speedThreshold="10" friendlyPos="x" id="e2det_0_10_A0A1_0" lane="A0A1_0" length="77.33333333333333" pos="1.1379786002407855e-14"/>
    <laneAreaDetector file="e2output.xml" freq="60" speedThreshold="20" friendlyPos="x" id="e2det_0_20_A0A1_0" lane="A0A1_0" length="77.33333333333333" pos="1.1379786002407855e-14"/>
    <laneAreaDetector file="e2output.xml" freq="60" speedThreshold="100" friendlyPos="x" id="e2det_0_100_A0A1_0" lane="A0A1_0" length="77.33333333333333" pos="1.1379786002407855e-14"/>
    <laneAreaDetector file="e2output.xml" freq="60" speedThreshold="10" friendlyPos="x" id="e2det_1_10_A0A1_0" lane="A0A1_0" length="77.33333333333333" pos="-77.63333333333331"/>
    <laneAreaDetector file="e2output.xml" freq="60" speedThreshold="20" friendlyPos="x" id="e2det_1_20_A0A1_0" lane="A0A1_0" length="77.33333333333333" pos="-77.63333333333331"/>
    <laneAreaDetector file="e2output.xml" freq="60" speedThreshold="100" friendlyPos="x" id="e2det_1_100_A0A1_0" lane="A0A1_0" length="77.33333333333333" pos="-77.63333333333331"/>
    <laneAreaDetector file="e2output.xml" freq="60" speedThreshold="10" friendlyPos="x" id="e2det_2_10_A0A1_0" lane="A0A1_0" length="77.33333333333333" pos="-155.26666666666665"/>
    <laneAreaDetector file="e2output.xml" freq="60" speedThreshold="20" friendlyPos="x" id="e2det_2_20_A0A1_0" lane="A0A1_0" length="77.33333333333333" pos="-155.26666666666665"/>
    <laneAreaDetector file="e2output.xml" freq="60" speedThreshold="100" friendlyPos="x" id="e2det_2_100_A0A1_0" lane="A0A1_0" length="77.33333333333333" pos="-155.26666666666665"/>
    <laneAreaDetector file="e2output.xml" freq="60" speedThreshold="10" friendlyPos="x" id="e2det_0_10_A0A1_1" lane="A0A1_1" length="77.33333333333333" pos="1.1379786002407855e-14"/>
    <laneAreaDetector file="e2output.xml" freq="60" speedThreshold="20" friendlyPos="x" id="e2det_0_20_A0A1_1" lane="A0A1_1" length="77.33333333333333" pos="1.1379786002407855e-14"/>
    <laneAreaDetector file="e2output.xml" freq="60" speedThreshold="100" friendlyPos="x" id="e2det_0_100_A0A1_1" lane="A0A1_1" length="77.33333333333333" pos="1.1379786002407855e-14"/>
    <laneAreaDetector file="e2output.xml" freq="60" speedThreshold="10" friendlyPos="x" id="e2det_1_10_A0A1_1" lane="A0A1_1" length="77.33333333333333" pos="-77.63333333333331"/>
    <laneAreaDetector file="e2output.xml" freq="60" speedThreshold="20" friendlyPos="x" id="e2det_1_20_A0A1_1" lane="A0A1_1" length="77.33333333333333" pos="-77.63333333333331"/>
    <laneAreaDetector file="e2output.xml" freq="60" speedThreshold="100" friendlyPos="x" id="e2det_1_100_A0A1_1" lane="A0A1_1" length="77.33333333333333" pos="-77.63333333333331"/>
    <laneAreaDetector file="e2output.xml" freq="60" speedThreshold="10" friendlyPos="x" id="e2det_2_10_A0A1_1" lane="A0A1_1" length="77.33333333333333" pos="-155.26666666666665"/>
    <laneAreaDetector file="e2output.xml" freq="60" speedThreshold="20" friendlyPos="x" id="e2det_2_20_A0A1_1" lane="A0A1_1" length="77.33333333333333" pos="-155.26666666666665"/>
    <laneAreaDetector file="e2output.xml" freq="60" speedThreshold="100" friendlyPos="x" id="e2det_2_100_A0A1_1" lane="A0A1_1" length="77.33333333333333" pos="-155.26666666666665"/>
    <laneAreaDetector file="e2output.xml" freq="60" speedThreshold="10" friendlyPos="x" id="e2det_0_10_A2A1_0" lane="A2A1_0" length="76.0" pos="1.1379786002407855e-14"/>
    <laneAreaDetector file="e2output.xml" freq="60" speedThreshold="20" friendlyPos="x" id="e2det_0_20_A2A1_0" lane="A2A1_0" length="76.0" pos="1.1379786002407855e-14"/>
    <laneAreaDetector file="e2output.xml" freq="60" speedThreshold="100" friendlyPos="x" id="e2det_0_100_A2A1_0" lane="A2A1_0" length="76.0" pos="1.1379786002407855e-14"/>
    <laneAreaDetector file="e2output.xml" freq="60" speedThreshold="10" friendlyPos="x" id="e2det_1_10_A2A1_0" lane="A2A1_0" length="76.0" pos="-76.29999999999998"/>
    <laneAreaDetector file="e2output.xml" freq="60" speedThreshold="20" friendlyPos="x" id="e2det_1_20_A2A1_0" lane="A2A1_0" length="76.0" pos="-76.29999999999998"/>
    <laneAreaDetector file="e2output.xml" freq="60" speedThreshold="100" friendlyPos="x" id="e2det_1_100_A2A1_0" lane="A2A1_0" length="76.0" pos="-76.29999999999998"/>
    <laneAreaDetector file="e2output.xml" freq="60" speedThreshold="10" friendlyPos="x" id="e2det_2_10_A2A1_0" lane="A2A1_0" length="76.0" pos="-152.6"/>
    <laneAreaDetector file="e2output.xml" freq="60" speedThreshold="20" friendlyPos="x" id="e2det_2_20_A2A1_0" lane="A2A1_0" length="76.0" pos="-152.6"/>
    <laneAreaDetector file="e2output.xml" freq="60" speedThreshold="100" friendlyPos="x" id="e2det_2_100_A2A1_0" lane="A2A1_0" length="76.0" pos="-152.6"/>
    <laneAreaDetector file="e2output.xml" freq="60" speedThreshold="10" friendlyPos="x" id="e2det_0_10_A2A1_1" lane="A2A1_1" length="76.0" pos="1.1379786002407855e-14"/>
    <laneAreaDetector file="e2output.xml" freq="60" speedThreshold="20" friendlyPos="x" id="e2det_0_20_A2A1_1" lane="A2A1_1" length="76.0" pos="1.1379786002407855e-14"/>
    <laneAreaDetector file="e2output.xml" freq="60" speedThreshold="100" friendlyPos="x" id="e2det_0_100_A2A1_1" lane="A2A1_1" length="76.0" pos="1.1379786002407855e-14"/>
    <laneAreaDetector file="e2output.xml" freq="60" speedThreshold="10" friendlyPos="x" id="e2det_1_10_A2A1_1" lane="A2A1_1" length="76.0" pos="-76.29999999999998"/>
    <laneAreaDetector file="e2output.xml" freq="60" speedThreshold="20" friendlyPos="x" id="e2det_1_20_A2A1_1" lane="A2A1_1" length="76.0" pos="-76.29999999999998"/>
    <laneAreaDetector file="e2output.xml" freq="60" speedThreshold="100" friendlyPos="x" id="e2det_1_100_A2A1_1" lane="A2A1_1" length="76.0" pos="-76.29999999999998"/>
    <laneAreaDetector file="e2output.xml" freq="60" speedThreshold="10" friendlyPos="x" id="e2det_2_10_A2A1_1" lane="A2A1_1" length="76.0" pos="-152.6"/>
    <laneAreaDetector file="e2output.xml" freq="60" speedThreshold="20" friendlyPos="x" id="e2det_2_20_A2A1_1" lane="A2A1_1" length="76.0" pos="-152.6"/>
    <laneAreaDetector file="e2output.xml" freq="60" speedThreshold="100" friendlyPos="x" id="e2det_2_100_A2A1_1" lane="A2A1_1" length="76.0" pos="-152.6"/>
    <laneAreaDetector file="e2output.xml" freq="60" speedThreshold="10" friendlyPos="x" id="e2det_0_10_B1A1_0" lane="B1A1_0" length="106.0" pos="1.1379786002407855e-14"/>
    <laneAreaDetector file="e2output.xml" freq="60" speedThreshold="20" friendlyPos="x" id="e2det_0_20_B1A1_0" lane="B1A1_0" length="106.0" pos="1.1379786002407855e-14"/>
    <laneAreaDetector file="e2output.xml" freq="60" speedThreshold="100" friendlyPos="x" id="e2det_0_100_B1A1_0" lane="B1A1_0" length="106.0" pos="1.1379786002407855e-14"/>
    <laneAreaDetector file="e2output.xml" freq="60" speedThreshold="10" friendlyPos="x" id="e2det_1_10_B1A1_0" lane="B1A1_0" length="106.0" pos="-106.29999999999998"/>
    <laneAreaDetector file="e2output.xml" freq="60" speedThreshold="20" friendlyPos="x" id="e2det_1_20_B1A1_0" lane="B1A1_0" length="106.0" pos="-106.29999999999998"/>
    <laneAreaDetector file="e2output.xml" freq="60" speedThreshold="100" friendlyPos="x" id="e2det_1_100_B1A1_0" lane="B1A1_0" length="106.0" pos="-106.29999999999998"/>
    <laneAreaDetector file="e2output.xml" freq="60" speedThreshold="10" friendlyPos="x" id="e2det_2_10_B1A1_0" lane="B1A1_0" length="106.0" pos="-212.6"/>
    <laneAreaDetector file="e2output.xml" freq="60" speedThreshold="20" friendlyPos="x" id="e2det_2_20_B1A1_0" lane="B1A1_0" length="106.0" pos="-212.6"/>
    <laneAreaDetector file="e2output.xml" freq="60" speedThreshold="100" friendlyPos="x" id="e2det_2_100_B1A1_0" lane="B1A1_0" length="106.0" pos="-212.6"/>
    <laneAreaDetector file="e2output.xml" freq="60" speedThreshold="10" friendlyPos="x" id="e2det_0_10_B1A1_1" lane="B1A1_1" length="106.0" pos="1.1379786002407855e-14"/>
    <laneAreaDetector file="e2output.xml" freq="60" speedThreshold="20" friendlyPos="x" id="e2det_0_20_B1A1_1" lane="B1A1_1" length="106.0" pos="1.1379786002407855e-14"/>
    <laneAreaDetector file="e2output.xml" freq="60" speedThreshold="100" friendlyPos="x" id="e2det_0_100_B1A1_1" lane="B1A1_1" length="106.0" pos="1.1379786002407855e-14"/>
    <laneAreaDetector file="e2output.xml" freq="60" speedThreshold="10" friendlyPos="x" id="e2det_1_10_B1A1_1" lane="B1A1_1" length="106.0" pos="-106.29999999999998"/>
    <laneAreaDetector file="e2output.xml" freq="60" speedThreshold="20" friendlyPos="x" id="e2det_1_20_B1A1_1" lane="B1A1_1" length="106.0" pos="-106.29999999999998"/>
    <laneAreaDetector file="e2output.xml" freq="60" speedThreshold="100" friendlyPos="x" id="e2det_1_100_B1A1_1" lane="B1A1_1" length="106.0" pos="-106.29999999999998"/>
    <laneAreaDetector file="e2output.xml" freq="60" speedThreshold="10" friendlyPos="x" id="e2det_2_10_B1A1_1" lane="B1A1_1" length="106.0" pos="-212.6"/>
    <laneAreaDetector file="e2output.xml" freq="60" speedThreshold="20" friendlyPos="x" id="e2det_2_20_B1A1_1" lane="B1A1_1" length="106.0" pos="-212.6"/>
    <laneAreaDetector file="e2output.xml" freq="60" speedThreshold="100" friendlyPos="x" id="e2det_2_100_B1A1_1" lane="B1A1_1" length="106.0" pos="-212.6"/>
    <laneAreaDetector file="e2output.xml" freq="60" speedThreshold="10" friendlyPos="x" id="e2det_0_10_A0B0_0" lane="A0B0_0" length="107.33333333333333" pos="1.1379786002407855e-14"/>
    <laneAreaDetector file="e2output.xml" freq="60" speedThreshold="20" friendlyPos="x" id="e2det_0_20_A0B0_0" lane="A0B0_0" length="107.33333333333333" pos="1.1379786002407855e-14"/>
    <laneAreaDetector file="e2output.xml" freq="60" speedThreshold="100" friendlyPos="x" id="e2det_0_100_A0B0_0" lane="A0B0_0" length="107.33333333333333" pos="1.1379786002407855e-14"/>
    <laneAreaDetector file="e2output.xml" freq="60" speedThreshold="10" friendlyPos="x" id="e2det_1_10_A0B0_0" lane="A0B0_0" length="107.33333333333333" pos="-107.63333333333331"/>
    <laneAreaDetector file="e2output.xml" freq="60" speedThreshold="20" friendlyPos="x" id="e2det_1_20_A0B0_0" lane="A0B0_0" length="107.33333333333333" pos="-107.63333333333331"/>
    <laneAreaDetector file="e2output.xml" freq="60" speedThreshold="100" friendlyPos="x" id="e2det_1_100_A0B0_0" lane="A0B0_0" length="107.33333333333333" pos="-107.63333333333331"/>
    <laneAreaDetector file="e2output.xml" freq="60" speedThreshold="10" friendlyPos="x" id="e2det_2_10_A0B0_0" lane="A0B0_0" length="107.33333333333333" pos="-215.26666666666665"/>
    <laneAreaDetector file="e2output.xml" freq="60" speedThreshold="20" friendlyPos="x" id="e2det_2_20_A0B0_0" lane="A0B0_0" length="107.33333333333333" pos="-215.26666666666665"/>
    <laneAreaDetector file="e2output.xml" freq="60" speedThreshold="100" friendlyPos="x" id="e2det_2_100_A0B0_0" lane="A0B0_0" length="107.33333333333333" pos="-215.26666666666665"/>
    <laneAreaDetector file="e2output.xml" freq="60" speedThreshold="10" friendlyPos="x" id="e2det_0_10_A0B0_1" lane="A0B0_1" length="107.33333333333333" pos="1.1379786002407855e-14"/>
    <laneAreaDetector file="e2output.xml" freq="60" speedThreshold="20" friendlyPos="x" id="e2det_0_20_A0B0_1" lane="A0B0_1" length="107.33333333333333" pos="1.1379786002407855e-14"/>
    <laneAreaDetector file="e2output.xml" freq="60" speedThreshold="100" friendlyPos="x" id="e2det_0_100_A0B0_1" lane="A0B0_1" length="107.33333333333333" pos="1.1379786002407855e-14"/>
    <laneAreaDetector file="e2output.xml" freq="60" speedThreshold="10" friendlyPos="x" id="e2det_1_10_A0B0_1" lane="A0B0_1" length="107.33333333333333" pos="-107.63333333333331"/>
    <laneAreaDetector file="e2output.xml" freq="60" speedThreshold="20" friendlyPos="x" id="e2det_1_20_A0B0_1" lane="A0B0_1" length="107.33333333333333" pos="-107.63333333333331"/>
    <laneAreaDetector file="e2output.xml" freq="60" speedThreshold="100" friendlyPos="x" id="e2det_1_100_A0B0_1" lane="A0B0_1" length="107.33333333333333" pos="-107.63333333333331"/>
    <laneAreaDetector file="e2output.xml" freq="60" speedThreshold="10" friendlyPos="x" id="e2det_2_10_A0B0_1" lane="A0B0_1" length="107.33333333333333" pos="-215.26666666666665"/>
    <laneAreaDetector file="e2output.xml" freq="60" speedThreshold="20" friendlyPos="x" id="e2det_2_20_A0B0_1" lane="A0B0_1" length="107.33333333333333" pos="-215.26666666666665"/>
    <laneAreaDetector file="e2output.xml" freq="60" speedThreshold="100" friendlyPos="x" id="e2det_2_100_A0B0_1" lane="A0B0_1" length="107.33333333333333" pos="-215.26666666666665"/>
    <laneAreaDetector file="e2output.xml" freq="60" speedThreshold="10" friendlyPos="x" id="e2det_0_10_B1B0_0" lane="B1B0_0" length="76.0" pos="1.1379786002407855e-14"/>
    <laneAreaDetector file="e2output.xml" freq="60" speedThreshold="20" friendlyPos="x" id="e2det_0_20_B1B0_0" lane="B1B0_0" length="76.0" pos="1.1379786002407855e-14"/>
    <laneAreaDetector file="e2output.xml" freq="60" speedThreshold="100" friendlyPos="x" id="e2det_0_100_B1B0_0" lane="B1B0_0" length="76.0" pos="1.1379786002407855e-14"/>
    <laneAreaDetector file="e2output.xml" freq="60" speedThreshold="10" friendlyPos="x" id="e2det_1_10_B1B0_0" lane="B1B0_0" length="76.0" pos="-76.29999999999998"/>
    <laneAreaDetector file="e2output.xml" freq="60" speedThreshold="20" friendlyPos="x" id="e2det_1_20_B1B0_0" lane="B1B0_0" length="76.0" pos="-76.29999999999998"/>
    <laneAreaDetector file="e2output.xml" freq="60" speedThreshold="100" friendlyPos="x" id="e2det_1_100_B1B0_0" lane="B1B0_0" length="76.0" pos="-76.29999999999998"/>
    <laneAreaDetector file="e2output.xml" freq="60" speedThreshold="10" friendlyPos="x" id="e2det_2_10_B1B0_0" lane="B1B0_0" length="76.0" pos="-152.6"/>
    <laneAreaDetector file="e2output.xml" freq="60" speedThreshold="20" friendlyPos="x" id="e2det_2_20_B1B0_0" lane="B1B0_0" length="76.0" pos="-152.6"/>
    <laneAreaDetector file="e2output.xml" freq="60" speedThreshold="100" friendlyPos="x" id="e2det_2_100_B1B0_0" lane="B1B0_0" length="76.0" pos="-152.6"/>
    <laneAreaDetector file="e2output.xml" freq="60" speedThreshold="10" friendlyPos="x" id="e2det_0_10_B1B0_1" lane="B1B0_1" length="76.0" pos="1.1379786002407855e-14"/>
    <laneAreaDetector file="e2output.xml" freq="60" speedThreshold="20" friendlyPos="x" id="e2det_0_20_B1B0_1" lane="B1B0_1" length="76.0" pos="1.1379786002407855e-14"/>
    <laneAreaDetector file="e2output.xml" freq="60" speedThreshold="100" friendlyPos="x" id="e2det_0_100_B1B0_1" lane="B1B0_1" length="76.0" pos="1.1379786002407855e-14"/>
    <laneAreaDetector file="e2output.xml" freq="60" speedThreshold="10" friendlyPos="x" id="e2det_1_10_B1B0_1" lane="B1B0_1" length="76.0" pos="-76.29999999999998"/>
    <laneAreaDetector file="e2output.xml" freq="60" speedThreshold="20" friendlyPos="x" id="e2det_1_20_B1B0_1" lane="B1B0_1" length="76.0" pos="-76.29999999999998"/>
    <laneAreaDetector file="e2output.xml" freq="60" speedThreshold="100" friendlyPos="x" id="e2det_1_100_B1B0_1" lane="B1B0_1" length="76.0" pos="-76.29999999999998"/>
    <laneAreaDetector file="e2output.xml" freq="60" speedThreshold="10" friendlyPos="x" id="e2det_2_10_B1B0_1" lane="B1B0_1" length="76.0" pos="-152.6"/>
    <laneAreaDetector file="e2output.xml" freq="60" speedThreshold="20" friendlyPos="x" id="e2det_2_20_B1B0_1" lane="B1B0_1" length="76.0" pos="-152.6"/>
    <laneAreaDetector file="e2output.xml" freq="60" speedThreshold="100" friendlyPos="x" id="e2det_2_100_B1B0_1" lane="B1B0_1" length="76.0" pos="-152.6"/>
    <laneAreaDetector file="e2output.xml" freq="60" speedThreshold="10" friendlyPos="x" id="e2det_0_10_C0B0_0" lane="C0B0_0" length="106.0" pos="1.1379786002407855e-14"/>
    <laneAreaDetector file="e2output.xml" freq="60" speedThreshold="20" friendlyPos="x" id="e2det_0_20_C0B0_0" lane="C0B0_0" length="106.0" pos="1.1379786002407855e-14"/>
    <laneAreaDetector file="e2output.xml" freq="60" speedThreshold="100" friendlyPos="x" id="e2det_0_100_C0B0_0" lane="C0B0_0" length="106.0" pos="1.1379786002407855e-14"/>
    <laneAreaDetector file="e2output.xml" freq="60" speedThreshold="10" friendlyPos="x" id="e2det_1_10_C0B0_0" lane="C0B0_0" length="106.0" pos="-106.29999999999998"/>
    <laneAreaDetector file="e2output.xml" freq="60" speedThreshold="20" friendlyPos="x" id="e2det_1_20_C0B0_0" lane="C0B0_0" length="106.0" pos="-106.29999999999998"/>
    <laneAreaDetector file="e2output.xml" freq="60" speedThreshold="100" friendlyPos="x" id="e2det_1_100_C0B0_0" lane="C0B0_0" length="106.0" pos="-106.29999999999998"/>
    <laneAreaDetector file="e2output.xml" freq="60" speedThreshold="10" friendlyPos="x" id="e2det_2_10_C0B0_0" lane="C0B0_0" length="106.0" pos="-212.6"/>
    <laneAreaDetector file="e2output.xml" freq="60" speedThreshold="20" friendlyPos="x" id="e2det_2_20_C0B0_0" lane="C0B0_0" length="106.0" pos="-212.6"/>
    <laneAreaDetector file="e2output.xml" freq="60" speedThreshold="100" friendlyPos="x" id="e2det_2_100_C0B0_0" lane="C0B0_0" length="106.0" pos="-212.6"/>
    <laneAreaDetector file="e2output.xml" freq="60" speedThreshold="10" friendlyPos="x" id="e2det_0_10_C0B0_1" lane="C0B0_1" length="106.0" pos="1.1379786002407855e-14"/>
    <laneAreaDetector file="e2output.xml" freq="60" speedThreshold="20" friendlyPos="x" id="e2det_0_20_C0B0_1" lane="C0B0_1" length="106.0" pos="1.1379786002407855e-14"/>
    <laneAreaDetector file="e2output.xml" freq="60" speedThreshold="100" friendlyPos="x" id="e2det_0_100_C0B0_1" lane="C0B0_1" length="106.0" pos="1.1379786002407855e-14"/>
    <laneAreaDetector file="e2output.xml" freq="60" speedThreshold="10" friendlyPos="x" id="e2det_1_10_C0B0_1" lane="C0B0_1" length="106.0" pos="-106.29999999999998"/>
    <laneAreaDetector file="e2output.xml" freq="60" speedThreshold="20" friendlyPos="x" id="e2det_1_20_C0B0_1" lane="C0B0_1" length="106.0" pos="-106.29999999999998"/>
    <laneAreaDetector file="e2output.xml" freq="60" speedThreshold="100" friendlyPos="x" id="e2det_1_100_C0B0_1" lane="C0B0_1" length="106.0" pos="-106.29999999999998"/>
    <laneAreaDetector file="e2output.xml" freq="60" speedThreshold="10" friendlyPos="x" id="e2det_2_10_C0B0_1" lane="C0B0_1" length="106.0" pos="-212.6"/>
    <laneAreaDetector file="e2output.xml" freq="60" speedThreshold="20" friendlyPos="x" id="e2det_2_20_C0B0_1" lane="C0B0_1" length="106.0" pos="-212.6"/>
    <laneAreaDetector file="e2output.xml" freq="60" speedThreshold="100" friendlyPos="x" id="e2det_2_100_C0B0_1" lane="C0B0_1" length="106.0" pos="-212.6"/>
    <laneAreaDetector file="e2output.xml" freq="60" speedThreshold="10" friendlyPos="x" id="e2det_0_10_A1A0_0" lane="A1A0_0" length="77.33333333333333" pos="1.1379786002407855e-14"/>
    <laneAreaDetector file="e2output.xml" freq="60" speedThreshold="20" friendlyPos="x" id="e2det_0_20_A1A0_0" lane="A1A0_0" length="77.33333333333333" pos="1.1379786002407855e-14"/>
    <laneAreaDetector file="e2output.xml" freq="60" speedThreshold="100" friendlyPos="x" id="e2det_0_100_A1A0_0" lane="A1A0_0" length="77.33333333333333" pos="1.1379786002407855e-14"/>
    <laneAreaDetector file="e2output.xml" freq="60" speedThreshold="10" friendlyPos="x" id="e2det_1_10_A1A0_0" lane="A1A0_0" length="77.33333333333333" pos="-77.63333333333331"/>
    <laneAreaDetector file="e2output.xml" freq="60" speedThreshold="20" friendlyPos="x" id="e2det_1_20_A1A0_0" lane="A1A0_0" length="77.33333333333333" pos="-77.63333333333331"/>
    <laneAreaDetector file="e2output.xml" freq="60" speedThreshold="100" friendlyPos="x" id="e2det_1_100_A1A0_0" lane="A1A0_0" length="77.33333333333333" pos="-77.63333333333331"/>
    <laneAreaDetector file="e2output.xml" freq="60" speedThreshold="10" friendlyPos="x" id="e2det_2_10_A1A0_0" lane="A1A0_0" length="77.33333333333333" pos="-155.26666666666665"/>
    <laneAreaDetector file="e2output.xml" freq="60" speedThreshold="20" friendlyPos="x" id="e2det_2_20_A1A0_0" lane="A1A0_0" length="77.33333333333333" pos="-155.26666666666665"/>
    <laneAreaDetector file="e2output.xml" freq="60" speedThreshold="100" friendlyPos="x" id="e2det_2_100_A1A0_0" lane="A1A0_0" length="77.33333333333333" pos="-155.26666666666665"/>
    <laneAreaDetector file="e2output.xml" freq="60" speedThreshold="10" friendlyPos="x" id="e2det_0_10_A1A0_1" lane="A1A0_1" length="77.33333333333333" pos="1.1379786002407855e-14"/>
    <laneAreaDetector file="e2output.xml" freq="60" speedThreshold="20" friendlyPos="x" id="e2det_0_20_A1A0_1" lane="A1A0_1" length="77.33333333333333" pos="1.1379786002407855e-14"/>
    <laneAreaDetector file="e2output.xml" freq="60" speedThreshold="100" friendlyPos="x" id="e2det_0_100_A1A0_1" lane="A1A0_1" length="77.33333333333333" pos="1.1379786002407855e-14"/>
    <laneAreaDetector file="e2output.xml" freq="60" speedThreshold="10" friendlyPos="x" id="e2det_1_10_A1A0_1" lane="A1A0_1" length="77.33333333333333" pos="-77.63333333333331"/>
    <laneAreaDetector file="e2output.xml" freq="60" speedThreshold="20" friendlyPos="x" id="e2det_1_20_A1A0_1" lane="A1A0_1" length="77.33333333333333" pos="-77.63333333333331"/>
    <laneAreaDetector file="e2output.xml" freq="60" speedThreshold="100" friendlyPos="x" id="e2det_1_100_A1A0_1" lane="A1A0_1" length="77.33333333333333" pos="-77.63333333333331"/>
    <laneAreaDetector file="e2output.xml" freq="60" speedThreshold="10" friendlyPos="x" id="e2det_2_10_A1A0_1" lane="A1A0_1" length="77.33333333333333" pos="-155.26666666666665"/>
    <laneAreaDetector file="e2output.xml" freq="60" speedThreshold="20" friendlyPos="x" id="e2det_2_20_A1A0_1" lane="A1A0_1" length="77.33333333333333" pos="-155.26666666666665"/>
    <laneAreaDetector file="e2output.xml" freq="60" speedThreshold="100" friendlyPos="x" id="e2det_2_100_A1A0_1" lane="A1A0_1" length="77.33333333333333" pos="-155.26666666666665"/>
    <laneAreaDetector file="e2output.xml" freq="60" speedThreshold="10" friendlyPos="x" id="e2det_0_10_B0A0_0" lane="B0A0_0" length="107.33333333333333" pos="1.1379786002407855e-14"/>
    <laneAreaDetector file="e2output.xml" freq="60" speedThreshold="20" friendlyPos="x" id="e2det_0_20_B0A0_0" lane="B0A0_0" length="107.33333333333333" pos="1.1379786002407855e-14"/>
    <laneAreaDetector file="e2output.xml" freq="60" speedThreshold="100" friendlyPos="x" id="e2det_0_100_B0A0_0" lane="B0A0_0" length="107.33333333333333" pos="1.1379786002407855e-14"/>
    <laneAreaDetector file="e2output.xml" freq="60" speedThreshold="10" friendlyPos="x" id="e2det_1_10_B0A0_0" lane="B0A0_0" length="107.33333333333333" pos="-107.63333333333331"/>
    <laneAreaDetector file="e2output.xml" freq="60" speedThreshold="20" friendlyPos="x" id="e2det_1_20_B0A0_0" lane="B0A0_0" length="107.33333333333333" pos="-107.63333333333331"/>
    <laneAreaDetector file="e2output.xml" freq="60" speedThreshold="100" friendlyPos="x" id="e2det_1_100_B0A0_0" lane="B0A0_0" length="107.33333333333333" pos="-107.63333333333331"/>
    <laneAreaDetector file="e2output.xml" freq="60" speedThreshold="10" friendlyPos="x" id="e2det_2_10_B0A0_0" lane="B0A0_0" length="107.33333333333333" pos="-215.26666666666665"/>
    <laneAreaDetector file="e2output.xml" freq="60" speedThreshold="20" friendlyPos="x" id="e2det_2_20_B0A0_0" lane="B0A0_0" length="107.33333333333333" pos="-215.26666666666665"/>
    <laneAreaDetector file="e2output.xml" freq="60" speedThreshold="100" friendlyPos="x" id="e2det_2_100_B0A0_0" lane="B0A0_0" length="107.33333333333333" pos="-215.26666666666665"/>
    <laneAreaDetector file="e2output.xml" freq="60" speedThreshold="10" friendlyPos="x" id="e2det_0_10_B0A0_1" lane="B0A0_1" length="107.33333333333333" pos="1.1379786002407855e-14"/>
    <laneAreaDetector file="e2output.xml" freq="60" speedThreshold="20" friendlyPos="x" id="e2det_0_20_B0A0_1" lane="B0A0_1" length="107.33333333333333" pos="1.1379786002407855e-14"/>
    <laneAreaDetector file="e2output.xml" freq="60" speedThreshold="100" friendlyPos="x" id="e2det_0_100_B0A0_1" lane="B0A0_1" length="107.33333333333333" pos="1.1379786002407855e-14"/>
    <laneAreaDetector file="e2output.xml" freq="60" speedThreshold="10" friendlyPos="x" id="e2det_1_10_B0A0_1" lane="B0A0_1" length="107.33333333333333" pos="-107.63333333333331"/>
    <laneAreaDetector file="e2output.xml" freq="60" speedThreshold="20" friendlyPos="x" id="e2det_1_20_B0A0_1" lane="B0A0_1" length="107.33333333333333" pos="-107.63333333333331"/>
    <laneAreaDetector file="e2output.xml" freq="60" speedThreshold="100" friendlyPos="x" id="e2det_1_100_B0A0_1" lane="B0A0_1" length="107.33333333333333" pos="-107.63333333333331"/>
    <laneAreaDetector file="e2output.xml" freq="60" speedThreshold="10" friendlyPos="x" id="e2det_2_10_B0A0_1" lane="B0A0_1" length="107.33333333333333" pos="-215.26666666666665"/>
    <laneAreaDetector file="e2output.xml" freq="60" speedThreshold="20" friendlyPos="x" id="e2det_2_20_B0A0_1" lane="B0A0_1" length="107.33333333333333" pos="-215.26666666666665"/>
    <laneAreaDetector file="e2output.xml" freq="60" speedThreshold="100" friendlyPos="x" id="e2det_2_100_B0A0_1" lane="B0A0_1" length="107.33333333333333" pos="-215.26666666666665"/>
    <laneAreaDetector file="e2output.xml" freq="60" speedThreshold="10" friendlyPos="x" id="e2det_0_10_A1A2_0" lane="A1A2_0" length="76.0" pos="1.1379786002407855e-14"/>
    <laneAreaDetector file="e2output.xml" freq="60" speedThreshold="20" friendlyPos="x" id="e2det_0_20_A1A2_0" lane="A1A2_0" length="76.0" pos="1.1379786002407855e-14"/>
    <laneAreaDetector file="e2output.xml" freq="60" speedThreshold="100" friendlyPos="x" id="e2det_0_100_A1A2_0" lane="A1A2_0" length="76.0" pos="1.1379786002407855e-14"/>
    <laneAreaDetector file="e2output.xml" freq="60" speedThreshold="10" friendlyPos="x" id="e2det_1_10_A1A2_0" lane="A1A2_0" length="76.0" pos="-76.29999999999998"/>
    <laneAreaDetector file="e2output.xml" freq="60" speedThreshold="20" friendlyPos="x" id="e2det_1_20_A1A2_0" lane="A1A2_0" length="76.0" pos="-76.29999999999998"/>
    <laneAreaDetector file="e2output.xml" freq="60" speedThreshold="100" friendlyPos="x" id="e2det_1_100_A1A2_0" lane="A1A2_0" length="76.0" pos="-76.29999999999998"/>
    <laneAreaDetector file="e2output.xml" freq="60" speedThreshold="10" friendlyPos="x" id="e2det_2_10_A1A2_0" lane="A1A2_0" length="76.0" pos="-152.6"/>
    <laneAreaDetector file="e2output.xml" freq="60" speedThreshold="20" friendlyPos="x" id="e2det_2_20_A1A2_0" lane="A1A2_0" length="76.0" pos="-152.6"/>
    <laneAreaDetector file="e2output.xml" freq="60" speedThreshold="100" friendlyPos="x" id="e2det_2_100_A1A2_0" lane="A1A2_0" length="76.0" pos="-152.6"/>
    <laneAreaDetector file="e2output.xml" freq="60" speedThreshold="10" friendlyPos="x" id="e2det_0_10_A1A2_1" lane="A1A2_1" length="76.0" pos="1.1379786002407855e-14"/>
    <laneAreaDetector file="e2output.xml" freq="60" speedThreshold="20" friendlyPos="x" id="e2det_0_20_A1A2_1" lane="A1A2_1" length="76.0" pos="1.1379786002407855e-14"/>
    <laneAreaDetector file="e2output.xml" freq="60" speedThreshold="100" friendlyPos="x" id="e2det_0_100_A1A2_1" lane="A1A2_1" length="76.0" pos="1.1379786002407855e-14"/>
    <laneAreaDetector file="e2output.xml" freq="60" speedThreshold="10" friendlyPos="x" id="e2det_1_10_A1A2_1" lane="A1A2_1" length="76.0" pos="-76.29999999999998"/>
    <laneAreaDetector file="e2output.xml" freq="60" speedThreshold="20" friendlyPos="x" id="e2det_1_20_A1A2_1" lane="A1A2_1" length="76.0" pos="-76.29999999999998"/>
    <laneAreaDetector file="e2output.xml" freq="60" speedThreshold="100" friendlyPos="x" id="e2det_1_100_A1A2_1" lane="A1A2_1" length="76.0" pos="-76.29999999999998"/>
    <laneAreaDetector file="e2output.xml" freq="60" speedThreshold="10" friendlyPos="x" id="e2det_2_10_A1A2_1" lane="A1A2_1" length="76.0" pos="-152.6"/>
    <laneAreaDetector file="e2output.xml" freq="60" speedThreshold="20" friendlyPos="x" id="e2det_2_20_A1A2_1" lane="A1A2_1" length="76.0" pos="-152.6"/>
    <laneAreaDetector file="e2output.xml" freq="60" speedThreshold="100" friendlyPos="x" id="e2det_2_100_A1A2_1" lane="A1A2_1" length="76.0" pos="-152.6"/>
    <laneAreaDetector file="e2output.xml" freq="60" speedThreshold="10" friendlyPos="x" id="e2det_0_10_A3A2_0" lane="A3A2_0" length="76.0" pos="1.1379786002407855e-14"/>
    <laneAreaDetector file="e2output.xml" freq="60" speedThreshold="20" friendlyPos="x" id="e2det_0_20_A3A2_0" lane="A3A2_0" length="76.0" pos="1.1379786002407855e-14"/>
    <laneAreaDetector file="e2output.xml" freq="60" speedThreshold="100" friendlyPos="x" id="e2det_0_100_A3A2_0" lane="A3A2_0" length="76.0" pos="1.1379786002407855e-14"/>
    <laneAreaDetector file="e2output.xml" freq="60" speedThreshold="10" friendlyPos="x" id="e2det_1_10_A3A2_0" lane="A3A2_0" length="76.0" pos="-76.29999999999998"/>
    <laneAreaDetector file="e2output.xml" freq="60" speedThreshold="20" friendlyPos="x" id="e2det_1_20_A3A2_0" lane="A3A2_0" length="76.0" pos="-76.29999999999998"/>
    <laneAreaDetector file="e2output.xml" freq="60" speedThreshold="100" friendlyPos="x" id="e2det_1_100_A3A2_0" lane="A3A2_0" length="76.0" pos="-76.29999999999998"/>
    <laneAreaDetector file="e2output.xml" freq="60" speedThreshold="10" friendlyPos="x" id="e2det_2_10_A3A2_0" lane="A3A2_0" length="76.0" pos="-152.6"/>
    <laneAreaDetector file="e2output.xml" freq="60" speedThreshold="20" friendlyPos="x" id="e2det_2_20_A3A2_0" lane="A3A2_0" length="76.0" pos="-152.6"/>
    <laneAreaDetector file="e2output.xml" freq="60" speedThreshold="100" friendlyPos="x" id="e2det_2_100_A3A2_0" lane="A3A2_0" length="76.0" pos="-152.6"/>
    <laneAreaDetector file="e2output.xml" freq="60" speedThreshold="10" friendlyPos="x" id="e2det_0_10_A3A2_1" lane="A3A2_1" length="76.0" pos="1.1379786002407855e-14"/>
    <laneAreaDetector file="e2output.xml" freq="60" speedThreshold="20" friendlyPos="x" id="e2det_0_20_A3A2_1" lane="A3A2_1" length="76.0" pos="1.1379786002407855e-14"/>