<?xml version="1.0" encoding="UTF-8"?>

<!-- generated on 2021-06-28 00:27:39 by Eclipse SUMO netgenerate Version 1.9.2
<configuration xmlns:xsi="http://www.w3.org/2001/XMLSchema-instance" xsi:noNamespaceSchemaLocation="http://sumo.dlr.de/xsd/netgenerateConfiguration.xsd">

    <grid_network>
        <grid value="true"/>
        <grid.x-number value="10"/>
        <grid.y-number value="10"/>
        <grid.x-length value="340"/>
        <grid.y-length value="250"/>
    </grid_network>

    <input>
        <type-files value="edge.typ.xml"/>
    </input>

    <output>
        <output-file value="grid.net.xml"/>
    </output>

    <building_defaults>
        <default.type value="two_lane"/>
        <default-junction-type value="traffic_light"/>
    </building_defaults>

    <junctions>
        <no-turnarounds value="true"/>
    </junctions>

</configuration>
-->

<net version="1.9" junctionCornerDetail="5" limitTurnSpeed="5.50" xmlns:xsi="http://www.w3.org/2001/XMLSchema-instance" xsi:noNamespaceSchemaLocation="http://sumo.dlr.de/xsd/net_file.xsd">

    <location netOffset="0.00,0.00" convBoundary="0.00,0.00,3060.00,2250.00" origBoundary="0.00,0.00,3060.00,2250.00" projParameter="!"/>

    <type id="two_lane" numLanes="2" speed="44.00"/>

    <edge id=":A0_0" function="internal">
        <lane id=":A0_0_0" index="0" speed="8.96" length="18.06" shape="-4.80,6.40 -4.10,1.50 -2.00,-2.00 1.50,-4.10 6.40,-4.80"/>
        <lane id=":A0_0_1" index="1" speed="7.66" length="12.90" shape="-1.60,6.40 -1.10,2.90 0.40,0.40 2.90,-1.10 6.40,-1.60"/>
    </edge>
    <edge id=":A0_2" function="internal">
        <lane id=":A0_2_0" index="0" speed="3.90" length="2.58" shape="6.40,4.80 5.70,4.90 5.20,5.20 4.90,5.70 4.80,6.40"/>
        <lane id=":A0_2_1" index="1" speed="6.08" length="7.74" shape="6.40,1.60 4.30,1.90 2.80,2.80 1.90,4.30 1.60,6.40"/>
    </edge>
    <edge id=":A1_0" function="internal">
        <lane id=":A1_0_0" index="0" speed="44.00" length="20.80" shape="-4.80,260.40 -4.80,239.60"/>
        <lane id=":A1_0_1" index="1" speed="44.00" length="20.80" shape="-1.60,260.40 -1.60,239.60"/>
    </edge>
    <edge id=":A1_2" function="internal">
        <lane id=":A1_2_0" index="0" speed="9.26" length="6.96" shape="-1.60,260.40 -0.85,255.15 -0.00,253.73"/>
    </edge>
    <edge id=":A1_9" function="internal">
        <lane id=":A1_9_0" index="0" speed="9.26" length="12.40" shape="-0.00,253.73 1.40,251.40 5.15,249.15 10.40,248.40"/>
    </edge>
    <edge id=":A1_3" function="internal">
        <lane id=":A1_3_0" index="0" speed="6.51" length="9.03" shape="10.40,254.80 7.95,255.15 6.20,256.20 5.15,257.95 4.80,260.40"/>
        <lane id=":A1_3_1" index="1" speed="8.00" length="14.19" shape="10.40,251.60 6.55,252.15 3.80,253.80 2.15,256.55 1.60,260.40"/>
    </edge>
    <edge id=":A1_5" function="internal">
        <lane id=":A1_5_0" index="0" speed="9.26" length="19.35" shape="10.40,251.60 5.15,250.85 1.40,248.60 -0.85,244.85 -1.60,239.60"/>
    </edge>
    <edge id=":A1_6" function="internal">
        <lane id=":A1_6_0" index="0" speed="6.51" length="9.03" shape="4.80,239.60 5.15,242.05 6.20,243.80 7.95,244.85 10.40,245.20"/>
    </edge>
    <edge id=":A1_7" function="internal">
        <lane id=":A1_7_0" index="0" speed="44.00" length="20.80" shape="4.80,239.60 4.80,260.40"/>
        <lane id=":A1_7_1" index="1" speed="44.00" length="20.80" shape="1.60,239.60 1.60,260.40"/>
    </edge>
    <edge id=":A2_0" function="internal">
        <lane id=":A2_0_0" index="0" speed="44.00" length="20.80" shape="-4.80,510.40 -4.80,489.60"/>
        <lane id=":A2_0_1" index="1" speed="44.00" length="20.80" shape="-1.60,510.40 -1.60,489.60"/>
    </edge>
    <edge id=":A2_2" function="internal">
        <lane id=":A2_2_0" index="0" speed="9.26" length="6.96" shape="-1.60,510.40 -0.85,505.15 0.00,503.73"/>
    </edge>
    <edge id=":A2_9" function="internal">
        <lane id=":A2_9_0" index="0" speed="9.26" length="12.40" shape="0.00,503.73 1.40,501.40 5.15,499.15 10.40,498.40"/>
    </edge>
    <edge id=":A2_3" function="internal">
        <lane id=":A2_3_0" index="0" speed="6.51" length="9.03" shape="10.40,504.80 7.95,505.15 6.20,506.20 5.15,507.95 4.80,510.40"/>
        <lane id=":A2_3_1" index="1" speed="8.00" length="14.19" shape="10.40,501.60 6.55,502.15 3.80,503.80 2.15,506.55 1.60,510.40"/>
    </edge>
    <edge id=":A2_5" function="internal">
        <lane id=":A2_5_0" index="0" speed="9.26" length="19.35" shape="10.40,501.60 5.15,500.85 1.40,498.60 -0.85,494.85 -1.60,489.60"/>
    </edge>
    <edge id=":A2_6" function="internal">
        <lane id=":A2_6_0" index="0" speed="6.51" length="9.03" shape="4.80,489.60 5.15,492.05 6.20,493.80 7.95,494.85 10.40,495.20"/>
    </edge>
    <edge id=":A2_7" function="internal">
        <lane id=":A2_7_0" index="0" speed="44.00" length="20.80" shape="4.80,489.60 4.80,510.40"/>
        <lane id=":A2_7_1" index="1" speed="44.00" length="20.80" shape="1.60,489.60 1.60,510.40"/>
    </edge>
    <edge id=":A3_0" function="internal">
        <lane id=":A3_0_0" index="0" speed="44.00" length="20.80" shape="-4.80,760.40 -4.80,739.60"/>
        <lane id=":A3_0_1" index="1" speed="44.00" length="20.80" shape="-1.60,760.40 -1.60,739.60"/>
    </edge>
    <edge id=":A3_2" function="internal">
        <lane id=":A3_2_0" index="0" speed="9.26" length="6.96" shape="-1.60,760.40 -0.85,755.15 -0.00,753.73"/>
    </edge>
    <edge id=":A3_9" function="internal">
        <lane id=":A3_9_0" index="0" speed="9.26" length="12.40" shape="-0.00,753.73 1.40,751.40 5.15,749.15 10.40,748.40"/>
    </edge>
    <edge id=":A3_3" function="internal">
        <lane id=":A3_3_0" index="0" speed="6.51" length="9.03" shape="10.40,754.80 7.95,755.15 6.20,756.20 5.15,757.95 4.80,760.40"/>
        <lane id=":A3_3_1" index="1" speed="8.00" length="14.19" shape="10.40,751.60 6.55,752.15 3.80,753.80 2.15,756.55 1.60,760.40"/>
    </edge>
    <edge id=":A3_5" function="internal">
        <lane id=":A3_5_0" index="0" speed="9.26" length="19.35" shape="10.40,751.60 5.15,750.85 1.40,748.60 -0.85,744.85 -1.60,739.60"/>
    </edge>
    <edge id=":A3_6" function="internal">
        <lane id=":A3_6_0" index="0" speed="6.51" length="9.03" shape="4.80,739.60 5.15,742.05 6.20,743.80 7.95,744.85 10.40,745.20"/>
    </edge>
    <edge id=":A3_7" function="internal">
        <lane id=":A3_7_0" index="0" speed="44.00" length="20.80" shape="4.80,739.60 4.80,760.40"/>
        <lane id=":A3_7_1" index="1" speed="44.00" length="20.80" shape="1.60,739.60 1.60,760.40"/>
    </edge>
    <edge id=":A4_0" function="internal">
        <lane id=":A4_0_0" index="0" speed="44.00" length="20.80" shape="-4.80,1010.40 -4.80,989.60"/>
        <lane id=":A4_0_1" index="1" speed="44.00" length="20.80" shape="-1.60,1010.40 -1.60,989.60"/>
    </edge>
    <edge id=":A4_2" function="internal">
        <lane id=":A4_2_0" index="0" speed="9.26" length="6.96" shape="-1.60,1010.40 -0.85,1005.15 -0.00,1003.73"/>
    </edge>
    <edge id=":A4_9" function="internal">
        <lane id=":A4_9_0" index="0" speed="9.26" length="12.40" shape="-0.00,1003.73 1.40,1001.40 5.15,999.15 10.40,998.40"/>
    </edge>
    <edge id=":A4_3" function="internal">
        <lane id=":A4_3_0" index="0" speed="6.51" length="9.03" shape="10.40,1004.80 7.95,1005.15 6.20,1006.20 5.15,1007.95 4.80,1010.40"/>
        <lane id=":A4_3_1" index="1" speed="8.00" length="14.19" shape="10.40,1001.60 6.55,1002.15 3.80,1003.80 2.15,1006.55 1.60,1010.40"/>
    </edge>
    <edge id=":A4_5" function="internal">
        <lane id=":A4_5_0" index="0" speed="9.26" length="19.35" shape="10.40,1001.60 5.15,1000.85 1.40,998.60 -0.85,994.85 -1.60,989.60"/>
    </edge>
    <edge id=":A4_6" function="internal">
        <lane id=":A4_6_0" index="0" speed="6.51" length="9.03" shape="4.80,989.60 5.15,992.05 6.20,993.80 7.95,994.85 10.40,995.20"/>
    </edge>
    <edge id=":A4_7" function="internal">
        <lane id=":A4_7_0" index="0" speed="44.00" length="20.80" shape="4.80,989.60 4.80,1010.40"/>
        <lane id=":A4_7_1" index="1" speed="44.00" length="20.80" shape="1.60,989.60 1.60,1010.40"/>
    </edge>
    <edge id=":A5_0" function="internal">
        <lane id=":A5_0_0" index="0" speed="44.00" length="20.80" shape="-4.80,1260.40 -4.80,1239.60"/>
        <lane id=":A5_0_1" index="1" speed="44.00" length="20.80" shape="-1.60,1260.40 -1.60,1239.60"/>
    </edge>
    <edge id=":A5_2" function="internal">
        <lane id=":A5_2_0" index="0" speed="9.26" length="6.96" shape="-1.60,1260.40 -0.85,1255.15 0.00,1253.73"/>
    </edge>
    <edge id=":A5_9" function="internal">
        <lane id=":A5_9_0" index="0" speed="9.26" length="12.40" shape="0.00,1253.73 1.40,1251.40 5.15,1249.15 10.40,1248.40"/>
    </edge>
    <edge id=":A5_3" function="internal">
        <lane id=":A5_3_0" index="0" speed="6.51" length="9.03" shape="10.40,1254.80 7.95,1255.15 6.20,1256.20 5.15,1257.95 4.80,1260.40"/>
        <lane id=":A5_3_1" index="1" speed="8.00" length="14.19" shape="10.40,1251.60 6.55,1252.15 3.80,1253.80 2.15,1256.55 1.60,1260.40"/>
    </edge>
    <edge id=":A5_5" function="internal">
        <lane id=":A5_5_0" index="0" speed="9.26" length="19.35" shape="10.40,1251.60 5.15,1250.85 1.40,1248.60 -0.85,1244.85 -1.60,1239.60"/>
    </edge>
    <edge id=":A5_6" function="internal">
        <lane id=":A5_6_0" index="0" speed="6.51" length="9.03" shape="4.80,1239.60 5.15,1242.05 6.20,1243.80 7.95,1244.85 10.40,1245.20"/>
    </edge>
    <edge id=":A5_7" function="internal">
        <lane id=":A5_7_0" index="0" speed="44.00" length="20.80" shape="4.80,1239.60 4.80,1260.40"/>
        <lane id=":A5_7_1" index="1" speed="44.00" length="20.80" shape="1.60,1239.60 1.60,1260.40"/>
    </edge>
    <edge id=":A6_0" function="internal">
        <lane id=":A6_0_0" index="0" speed="44.00" length="20.80" shape="-4.80,1510.40 -4.80,1489.60"/>
        <lane id=":A6_0_1" index="1" speed="44.00" length="20.80" shape="-1.60,1510.40 -1.60,1489.60"/>
    </edge>
    <edge id=":A6_2" function="internal">
        <lane id=":A6_2_0" index="0" speed="9.26" length="6.96" shape="-1.60,1510.40 -0.85,1505.15 0.00,1503.73"/>
    </edge>
    <edge id=":A6_9" function="internal">
        <lane id=":A6_9_0" index="0" speed="9.26" length="12.40" shape="0.00,1503.73 1.40,1501.40 5.15,1499.15 10.40,1498.40"/>
    </edge>
    <edge id=":A6_3" function="internal">
        <lane id=":A6_3_0" index="0" speed="6.51" length="9.03" shape="10.40,1504.80 7.95,1505.15 6.20,1506.20 5.15,1507.95 4.80,1510.40"/>
        <lane id=":A6_3_1" index="1" speed="8.00" length="14.19" shape="10.40,1501.60 6.55,1502.15 3.80,1503.80 2.15,1506.55 1.60,1510.40"/>
    </edge>
    <edge id=":A6_5" function="internal">
        <lane id=":A6_5_0" index="0" speed="9.26" length="19.35" shape="10.40,1501.60 5.15,1500.85 1.40,1498.60 -0.85,1494.85 -1.60,1489.60"/>
    </edge>
    <edge id=":A6_6" function="internal">
        <lane id=":A6_6_0" index="0" speed="6.51" length="9.03" shape="4.80,1489.60 5.15,1492.05 6.20,1493.80 7.95,1494.85 10.40,1495.20"/>
    </edge>
    <edge id=":A6_7" function="internal">
        <lane id=":A6_7_0" index="0" speed="44.00" length="20.80" shape="4.80,1489.60 4.80,1510.40"/>
        <lane id=":A6_7_1" index="1" speed="44.00" length="20.80" shape="1.60,1489.60 1.60,1510.40"/>
    </edge>
    <edge id=":A7_0" function="internal">
        <lane id=":A7_0_0" index="0" speed="44.00" length="20.80" shape="-4.80,1760.40 -4.80,1739.60"/>
        <lane id=":A7_0_1" index="1" speed="44.00" length="20.80" shape="-1.60,1760.40 -1.60,1739.60"/>
    </edge>
    <edge id=":A7_2" function="internal">
        <lane id=":A7_2_0" index="0" speed="9.26" length="6.96" shape="-1.60,1760.40 -0.85,1755.15 0.00,1753.73"/>
    </edge>
    <edge id=":A7_9" function="internal">
        <lane id=":A7_9_0" index="0" speed="9.26" length="12.40" shape="0.00,1753.73 1.40,1751.40 5.15,1749.15 10.40,1748.40"/>
    </edge>
    <edge id=":A7_3" function="internal">
        <lane id=":A7_3_0" index="0" speed="6.51" length="9.03" shape="10.40,1754.80 7.95,1755.15 6.20,1756.20 5.15,1757.95 4.80,1760.40"/>
        <lane id=":A7_3_1" index="1" speed="8.00" length="14.19" shape="10.40,1751.60 6.55,1752.15 3.80,1753.80 2.15,1756.55 1.60,1760.40"/>
    </edge>
    <edge id=":A7_5" function="internal">
        <lane id=":A7_5_0" index="0" speed="9.26" length="19.35" shape="10.40,1751.60 5.15,1750.85 1.40,1748.60 -0.85,1744.85 -1.60,1739.60"/>
    </edge>
    <edge id=":A7_6" function="internal">
        <lane id=":A7_6_0" index="0" speed="6.51" length="9.03" shape="4.80,1739.60 5.15,1742.05 6.20,1743.80 7.95,1744.85 10.40,1745.20"/>
    </edge>
    <edge id=":A7_7" function="internal">
        <lane id=":A7_7_0" index="0" speed="44.00" length="20.80" shape="4.80,1739.60 4.80,1760.40"/>
        <lane id=":A7_7_1" index="1" speed="44.00" length="20.80" shape="1.60,1739.60 1.60,1760.40"/>
    </edge>
    <edge id=":A8_0" function="internal">
        <lane id=":A8_0_0" index="0" speed="44.00" length="20.80" shape="-4.80,2010.40 -4.80,1989.60"/>
        <lane id=":A8_0_1" index="1" speed="44.00" length="20.80" shape="-1.60,2010.40 -1.60,1989.60"/>
    </edge>
    <edge id=":A8_2" function="internal">
        <lane id=":A8_2_0" index="0" speed="9.26" length="6.96" shape="-1.60,2010.40 -0.85,2005.15 0.00,2003.73"/>
    </edge>
    <edge id=":A8_9" function="internal">
        <lane id=":A8_9_0" index="0" speed="9.26" length="12.40" shape="0.00,2003.73 1.40,2001.40 5.15,1999.15 10.40,1998.40"/>
    </edge>
    <edge id=":A8_3" function="internal">
        <lane id=":A8_3_0" index="0" speed="6.51" length="9.03" shape="10.40,2004.80 7.95,2005.15 6.20,2006.20 5.15,2007.95 4.80,2010.40"/>
        <lane id=":A8_3_1" index="1" speed="8.00" length="14.19" shape="10.40,2001.60 6.55,2002.15 3.80,2003.80 2.15,2006.55 1.60,2010.40"/>
    </edge>
    <edge id=":A8_5" function="internal">
        <lane id=":A8_5_0" index="0" speed="9.26" length="19.35" shape="10.40,2001.60 5.15,2000.85 1.40,1998.60 -0.85,1994.85 -1.60,1989.60"/>
    </edge>
    <edge id=":A8_6" function="internal">
        <lane id=":A8_6_0" index="0" speed="6.51" length="9.03" shape="4.80,1989.60 5.15,1992.05 6.20,1993.80 7.95,1994.85 10.40,1995.20"/>
    </edge>
    <edge id=":A8_7" function="internal">
        <lane id=":A8_7_0" index="0" speed="44.00" length="20.80" shape="4.80,1989.60 4.80,2010.40"/>
        <lane id=":A8_7_1" index="1" speed="44.00" length="20.80" shape="1.60,1989.60 1.60,2010.40"/>
    </edge>
    <edge id=":A9_0" function="internal">
        <lane id=":A9_0_0" index="0" speed="8.96" length="18.06" shape="6.40,2254.80 1.50,2254.10 -2.00,2252.00 -4.10,2248.50 -4.80,2243.60"/>
        <lane id=":A9_0_1" index="1" speed="7.66" length="12.90" shape="6.40,2251.60 2.90,2251.10 0.40,2249.60 -1.10,2247.10 -1.60,2243.60"/>
    </edge>
    <edge id=":A9_2" function="internal">
        <lane id=":A9_2_0" index="0" speed="3.90" length="2.58" shape="4.80,2243.60 4.90,2244.30 5.20,2244.80 5.70,2245.10 6.40,2245.20"/>
        <lane id=":A9_2_1" index="1" speed="6.08" length="7.74" shape="1.60,2243.60 1.90,2245.70 2.80,2247.20 4.30,2248.10 6.40,2248.40"/>
    </edge>
    <edge id=":B0_0" function="internal">
        <lane id=":B0_0_0" index="0" speed="6.51" length="9.03" shape="335.20,10.40 334.85,7.95 333.80,6.20 332.05,5.15 329.60,4.80"/>
        <lane id=":B0_0_1" index="1" speed="8.00" length="14.19" shape="338.40,10.40 337.85,6.55 336.20,3.80 333.45,2.15 329.60,1.60"/>
    </edge>
    <edge id=":B0_2" function="internal">
        <lane id=":B0_2_0" index="0" speed="9.26" length="19.35" shape="338.40,10.40 339.15,5.15 341.40,1.40 345.15,-0.85 350.40,-1.60"/>
    </edge>
    <edge id=":B0_3" function="internal">
        <lane id=":B0_3_0" index="0" speed="6.51" length="9.03" shape="350.40,4.80 347.95,5.15 346.20,6.20 345.15,7.95 344.80,10.40"/>
    </edge>
    <edge id=":B0_4" function="internal">
        <lane id=":B0_4_0" index="0" speed="44.00" length="20.80" shape="350.40,4.80 329.60,4.80"/>
        <lane id=":B0_4_1" index="1" speed="44.00" length="20.80" shape="350.40,1.60 329.60,1.60"/>
    </edge>
    <edge id=":B0_6" function="internal">
        <lane id=":B0_6_0" index="0" speed="44.00" length="20.80" shape="329.60,-4.80 350.40,-4.80"/>
        <lane id=":B0_6_1" index="1" speed="44.00" length="20.80" shape="329.60,-1.60 350.40,-1.60"/>
    </edge>
    <edge id=":B0_8" function="internal">
        <lane id=":B0_8_0" index="0" speed="9.26" length="6.96" shape="329.60,-1.60 334.85,-0.85 336.27,0.00"/>
    </edge>
    <edge id=":B0_9" function="internal">
        <lane id=":B0_9_0" index="0" speed="9.26" length="12.40" shape="336.27,0.00 338.60,1.40 340.85,5.15 341.60,10.40"/>
    </edge>
    <edge id=":B1_0" function="internal">
        <lane id=":B1_0_0" index="0" speed="6.51" length="9.03" shape="335.20,260.40 334.85,257.95 333.80,256.20 332.05,255.15 329.60,254.80"/>
    </edge>
    <edge id=":B1_1" function="internal">
        <lane id=":B1_1_0" index="0" speed="44.00" length="20.80" shape="335.20,260.40 335.20,239.60"/>
        <lane id=":B1_1_1" index="1" speed="44.00" length="20.80" shape="338.40,260.40 338.40,239.60"/>
    </edge>
    <edge id=":B1_3" function="internal">
        <lane id=":B1_3_0" index="0" speed="9.26" length="6.96" shape="338.40,260.40 339.15,255.15 340.00,253.73"/>
    </edge>
    <edge id=":B1_16" function="internal">
        <lane id=":B1_16_0" index="0" speed="9.26" length="12.40" shape="340.00,253.73 341.40,251.40 345.15,249.15 350.40,248.40"/>
    </edge>
    <edge id=":B1_4" function="internal">
        <lane id=":B1_4_0" index="0" speed="6.51" length="9.03" shape="350.40,254.80 347.95,255.15 346.20,256.20 345.15,257.95 344.80,260.40"/>
    </edge>
    <edge id=":B1_5" function="internal">
        <lane id=":B1_5_0" index="0" speed="44.00" length="20.80" shape="350.40,254.80 329.60,254.80"/>
        <lane id=":B1_5_1" index="1" speed="44.00" length="20.80" shape="350.40,251.60 329.60,251.60"/>
    </edge>
    <edge id=":B1_7" function="internal">
        <lane id=":B1_7_0" index="0" speed="9.26" length="6.96" shape="350.40,251.60 345.15,250.85 343.73,250.00"/>
    </edge>
    <edge id=":B1_17" function="internal">
        <lane id=":B1_17_0" index="0" speed="9.26" length="12.40" shape="343.73,250.00 341.40,248.60 339.15,244.85 338.40,239.60"/>
    </edge>
    <edge id=":B1_8" function="internal">
        <lane id=":B1_8_0" index="0" speed="6.51" length="9.03" shape="344.80,239.60 345.15,242.05 346.20,243.80 347.95,244.85 350.40,245.20"/>
    </edge>
    <edge id=":B1_9" function="internal">
        <lane id=":B1_9_0" index="0" speed="44.00" length="20.80" shape="344.80,239.60 344.80,260.40"/>
        <lane id=":B1_9_1" index="1" speed="44.00" length="20.80" shape="341.60,239.60 341.60,260.40"/>
    </edge>
    <edge id=":B1_11" function="internal">
        <lane id=":B1_11_0" index="0" speed="9.26" length="6.96" shape="341.60,239.60 340.85,244.85 340.00,246.27"/>
    </edge>
    <edge id=":B1_18" function="internal">
        <lane id=":B1_18_0" index="0" speed="9.26" length="12.40" shape="340.00,246.27 338.60,248.60 334.85,250.85 329.60,251.60"/>
    </edge>
    <edge id=":B1_12" function="internal">
        <lane id=":B1_12_0" index="0" speed="6.51" length="9.03" shape="329.60,245.20 332.05,244.85 333.80,243.80 334.85,242.05 335.20,239.60"/>
    </edge>
    <edge id=":B1_13" function="internal">
        <lane id=":B1_13_0" index="0" speed="44.00" length="20.80" shape="329.60,245.20 350.40,245.20"/>
        <lane id=":B1_13_1" index="1" speed="44.00" length="20.80" shape="329.60,248.40 350.40,248.40"/>
    </edge>
    <edge id=":B1_15" function="internal">
        <lane id=":B1_15_0" index="0" speed="9.26" length="6.96" shape="329.60,248.40 334.85,249.15 336.27,250.00"/>
    </edge>
    <edge id=":B1_19" function="internal">
        <lane id=":B1_19_0" index="0" speed="9.26" length="12.40" shape="336.27,250.00 338.60,251.40 340.85,255.15 341.60,260.40"/>
    </edge>
    <edge id=":B2_0" function="internal">
        <lane id=":B2_0_0" index="0" speed="6.51" length="9.03" shape="335.20,510.40 334.85,507.95 333.80,506.20 332.05,505.15 329.60,504.80"/>
    </edge>
    <edge id=":B2_1" function="internal">
        <lane id=":B2_1_0" index="0" speed="44.00" length="20.80" shape="335.20,510.40 335.20,489.60"/>
        <lane id=":B2_1_1" index="1" speed="44.00" length="20.80" shape="338.40,510.40 338.40,489.60"/>
    </edge>
    <edge id=":B2_3" function="internal">
        <lane id=":B2_3_0" index="0" speed="9.26" length="6.96" shape="338.40,510.40 339.15,505.15 340.00,503.73"/>
    </edge>
    <edge id=":B2_16" function="internal">
        <lane id=":B2_16_0" index="0" speed="9.26" length="12.40" shape="340.00,503.73 341.40,501.40 345.15,499.15 350.40,498.40"/>
    </edge>
    <edge id=":B2_4" function="internal">
        <lane id=":B2_4_0" index="0" speed="6.51" length="9.03" shape="350.40,504.80 347.95,505.15 346.20,506.20 345.15,507.95 344.80,510.40"/>
    </edge>
    <edge id=":B2_5" function="internal">
        <lane id=":B2_5_0" index="0" speed="44.00" length="20.80" shape="350.40,504.80 329.60,504.80"/>
        <lane id=":B2_5_1" index="1" speed="44.00" length="20.80" shape="350.40,501.60 329.60,501.60"/>
    </edge>
    <edge id=":B2_7" function="internal">
        <lane id=":B2_7_0" index="0" speed="9.26" length="6.96" shape="350.40,501.60 345.15,500.85 343.73,500.00"/>
    </edge>
    <edge id=":B2_17" function="internal">
        <lane id=":B2_17_0" index="0" speed="9.26" length="12.40" shape="343.73,500.00 341.40,498.60 339.15,494.85 338.40,489.60"/>
    </edge>
    <edge id=":B2_8" function="internal">
        <lane id=":B2_8_0" index="0" speed="6.51" length="9.03" shape="344.80,489.60 345.15,492.05 346.20,493.80 347.95,494.85 350.40,495.20"/>
    </edge>
    <edge id=":B2_9" function="internal">
        <lane id=":B2_9_0" index="0" speed="44.00" length="20.80" shape="344.80,489.60 344.80,510.40"/>
        <lane id=":B2_9_1" index="1" speed="44.00" length="20.80" shape="341.60,489.60 341.60,510.40"/>
    </edge>
    <edge id=":B2_11" function="internal">
        <lane id=":B2_11_0" index="0" speed="9.26" length="6.96" shape="341.60,489.60 340.85,494.85 340.00,496.27"/>
    </edge>
    <edge id=":B2_18" function="internal">
        <lane id=":B2_18_0" index="0" speed="9.26" length="12.40" shape="340.00,496.27 338.60,498.60 334.85,500.85 329.60,501.60"/>
    </edge>
    <edge id=":B2_12" function="internal">
        <lane id=":B2_12_0" index="0" speed="6.51" length="9.03" shape="329.60,495.20 332.05,494.85 333.80,493.80 334.85,492.05 335.20,489.60"/>
    </edge>
    <edge id=":B2_13" function="internal">
        <lane id=":B2_13_0" index="0" speed="44.00" length="20.80" shape="329.60,495.20 350.40,495.20"/>
        <lane id=":B2_13_1" index="1" speed="44.00" length="20.80" shape="329.60,498.40 350.40,498.40"/>
    </edge>
    <edge id=":B2_15" function="internal">
        <lane id=":B2_15_0" index="0" speed="9.26" length="6.96" shape="329.60,498.40 334.85,499.15 336.27,500.00"/>
    </edge>
    <edge id=":B2_19" function="internal">
        <lane id=":B2_19_0" index="0" speed="9.26" length="12.40" shape="336.27,500.00 338.60,501.40 340.85,505.15 341.60,510.40"/>
    </edge>
    <edge id=":B3_0" function="internal">
        <lane id=":B3_0_0" index="0" speed="6.51" length="9.03" shape="335.20,760.40 334.85,757.95 333.80,756.20 332.05,755.15 329.60,754.80"/>
    </edge>
    <edge id=":B3_1" function="internal">
        <lane id=":B3_1_0" index="0" speed="44.00" length="20.80" shape="335.20,760.40 335.20,739.60"/>
        <lane id=":B3_1_1" index="1" speed="44.00" length="20.80" shape="338.40,760.40 338.40,739.60"/>
    </edge>
    <edge id=":B3_3" function="internal">
        <lane id=":B3_3_0" index="0" speed="9.26" length="6.96" shape="338.40,760.40 339.15,755.15 340.00,753.73"/>
    </edge>
    <edge id=":B3_16" function="internal">
        <lane id=":B3_16_0" index="0" speed="9.26" length="12.40" shape="340.00,753.73 341.40,751.40 345.15,749.15 350.40,748.40"/>
    </edge>
    <edge id=":B3_4" function="internal">
        <lane id=":B3_4_0" index="0" speed="6.51" length="9.03" shape="350.40,754.80 347.95,755.15 346.20,756.20 345.15,757.95 344.80,760.40"/>
    </edge>
    <edge id=":B3_5" function="internal">
        <lane id=":B3_5_0" index="0" speed="44.00" length="20.80" shape="350.40,754.80 329.60,754.80"/>
        <lane id=":B3_5_1" index="1" speed="44.00" length="20.80" shape="350.40,751.60 329.60,751.60"/>
    </edge>
    <edge id=":B3_7" function="internal">
        <lane id=":B3_7_0" index="0" speed="9.26" length="6.96" shape="350.40,751.60 345.15,750.85 343.73,750.00"/>
    </edge>
    <edge id=":B3_17" function="internal">
        <lane id=":B3_17_0" index="0" speed="9.26" length="12.40" shape="343.73,750.00 341.40,748.60 339.15,744.85 338.40,739.60"/>
    </edge>
    <edge id=":B3_8" function="internal">
        <lane id=":B3_8_0" index="0" speed="6.51" length="9.03" shape="344.80,739.60 345.15,742.05 346.20,743.80 347.95,744.85 350.40,745.20"/>
    </edge>
    <edge id=":B3_9" function="internal">
        <lane id=":B3_9_0" index="0" speed="44.00" length="20.80" shape="344.80,739.60 344.80,760.40"/>
        <lane id=":B3_9_1" index="1" speed="44.00" length="20.80" shape="341.60,739.60 341.60,760.40"/>
    </edge>
    <edge id=":B3_11" function="internal">
        <lane id=":B3_11_0" index="0" speed="9.26" length="6.96" shape="341.60,739.60 340.85,744.85 340.00,746.27"/>
    </edge>
    <edge id=":B3_18" function="internal">
        <lane id=":B3_18_0" index="0" speed="9.26" length="12.40" shape="340.00,746.27 338.60,748.60 334.85,750.85 329.60,751.60"/>
    </edge>
    <edge id=":B3_12" function="internal">
        <lane id=":B3_12_0" index="0" speed="6.51" length="9.03" shape="329.60,745.20 332.05,744.85 333.80,743.80 334.85,742.05 335.20,739.60"/>
    </edge>
    <edge id=":B3_13" function="internal">
        <lane id=":B3_13_0" index="0" speed="44.00" length="20.80" shape="329.60,745.20 350.40,745.20"/>
        <lane id=":B3_13_1" index="1" speed="44.00" length="20.80" shape="329.60,748.40 350.40,748.40"/>
    </edge>
    <edge id=":B3_15" function="internal">
        <lane id=":B3_15_0" index="0" speed="9.26" length="6.96" shape="329.60,748.40 334.85,749.15 336.27,750.00"/>
    </edge>
    <edge id=":B3_19" function="internal">
        <lane id=":B3_19_0" index="0" speed="9.26" length="12.40" shape="336.27,750.00 338.60,751.40 340.85,755.15 341.60,760.40"/>
    </edge>
    <edge id=":B4_0" function="internal">
        <lane id=":B4_0_0" index="0" speed="6.51" length="9.03" shape="335.20,1010.40 334.85,1007.95 333.80,1006.20 332.05,1005.15 329.60,1004.80"/>
    </edge>
    <edge id=":B4_1" function="internal">
        <lane id=":B4_1_0" index="0" speed="44.00" length="20.80" shape="335.20,1010.40 335.20,989.60"/>
        <lane id=":B4_1_1" index="1" speed="44.00" length="20.80" shape="338.40,1010.40 338.40,989.60"/>
    </edge>
    <edge id=":B4_3" function="internal">
        <lane id=":B4_3_0" index="0" speed="9.26" length="6.96" shape="338.40,1010.40 339.15,1005.15 340.00,1003.73"/>
    </edge>
    <edge id=":B4_16" function="internal">
        <lane id=":B4_16_0" index="0" speed="9.26" length="12.40" shape="340.00,1003.73 341.40,1001.40 345.15,999.15 350.40,998.40"/>
    </edge>
    <edge id=":B4_4" function="internal">
        <lane id=":B4_4_0" index="0" speed="6.51" length="9.03" shape="350.40,1004.80 347.95,1005.15 346.20,1006.20 345.15,1007.95 344.80,1010.40"/>
    </edge>
    <edge id=":B4_5" function="internal">
        <lane id=":B4_5_0" index="0" speed="44.00" length="20.80" shape="350.40,1004.80 329.60,1004.80"/>
        <lane id=":B4_5_1" index="1" speed="44.00" length="20.80" shape="350.40,1001.60 329.60,1001.60"/>
    </edge>
    <edge id=":B4_7" function="internal">
        <lane id=":B4_7_0" index="0" speed="9.26" length="6.96" shape="350.40,1001.60 345.15,1000.85 343.73,1000.00"/>
    </edge>
    <edge id=":B4_17" function="internal">
        <lane id=":B4_17_0" index="0" speed="9.26" length="12.40" shape="343.73,1000.00 341.40,998.60 339.15,994.85 338.40,989.60"/>
    </edge>
    <edge id=":B4_8" function="internal">
        <lane id=":B4_8_0" index="0" speed="6.51" length="9.03" shape="344.80,989.60 345.15,992.05 346.20,993.80 347.95,994.85 350.40,995.20"/>
    </edge>
    <edge id=":B4_9" function="internal">
        <lane id=":B4_9_0" index="0" speed="44.00" length="20.80" shape="344.80,989.60 344.80,1010.40"/>
        <lane id=":B4_9_1" index="1" speed="44.00" length="20.80" shape="341.60,989.60 341.60,1010.40"/>
    </edge>
    <edge id=":B4_11" function="internal">
        <lane id=":B4_11_0" index="0" speed="9.26" length="6.96" shape="341.60,989.60 340.85,994.85 340.00,996.27"/>
    </edge>
    <edge id=":B4_18" function="internal">
        <lane id=":B4_18_0" index="0" speed="9.26" length="12.40" shape="340.00,996.27 338.60,998.60 334.85,1000.85 329.60,1001.60"/>
    </edge>
    <edge id=":B4_12" function="internal">
        <lane id=":B4_12_0" index="0" speed="6.51" length="9.03" shape="329.60,995.20 332.05,994.85 333.80,993.80 334.85,992.05 335.20,989.60"/>
    </edge>
    <edge id=":B4_13" function="internal">
        <lane id=":B4_13_0" index="0" speed="44.00" length="20.80" shape="329.60,995.20 350.40,995.20"/>
        <lane id=":B4_13_1" index="1" speed="44.00" length="20.80" shape="329.60,998.40 350.40,998.40"/>
    </edge>
    <edge id=":B4_15" function="internal">
        <lane id=":B4_15_0" index="0" speed="9.26" length="6.96" shape="329.60,998.40 334.85,999.15 336.27,1000.00"/>
    </edge>
    <edge id=":B4_19" function="internal">
        <lane id=":B4_19_0" index="0" speed="9.26" length="12.40" shape="336.27,1000.00 338.60,1001.40 340.85,1005.15 341.60,1010.40"/>
    </edge>
    <edge id=":B5_0" function="internal">