<?xml version="1.0" encoding="UTF-8"?>

<!-- generated on 2021-06-17 23:28:31 by Eclipse SUMO netconvert Version 1.9.2
<configuration xmlns:xsi="http://www.w3.org/2001/XMLSchema-instance" xsi:noNamespaceSchemaLocation="http://sumo.dlr.de/xsd/netconvertConfiguration.xsd">

    <input>
        <osm-files value="batumi.osm"/>
    </input>

    <output>
        <output-file value="batumi.net.xml"/>
    </output>

    <projection>
        <proj.utm value="true"/>
    </projection>

    <report>
        <aggregate-warnings value="5"/>
    </report>

</configuration>
-->

<net version="1.9" junctionCornerDetail="5" limitTurnSpeed="5.50" xmlns:xsi="http://www.w3.org/2001/XMLSchema-instance" xsi:noNamespaceSchemaLocation="http://sumo.dlr.de/xsd/net_file.xsd">

    <location netOffset="-717513.75,-4612767.60" convBoundary="0.00,0.00,3829.99,2297.03" origBoundary="41.611670,41.636487,41.657899,41.657064" projParameter="+proj=utm +zone=37 +ellps=WGS84 +datum=WGS84 +units=m +no_defs"/>

    <type id="highway.bridleway" priority="1" numLanes="1" speed="2.78" allow="pedestrian" oneway="1" width="2.00"/>
    <type id="highway.bus_guideway" priority="1" numLanes="1" speed="27.78" allow="bus" oneway="1"/>
    <type id="highway.cycleway" priority="1" numLanes="1" speed="8.33" allow="bicycle" oneway="0" width="1.00"/>
    <type id="highway.footway" priority="1" numLanes="1" speed="2.78" allow="pedestrian" oneway="1" width="2.00"/>
    <type id="highway.ford" priority="1" numLanes="1" speed="2.78" allow="army" oneway="0"/>
    <type id="highway.living_street" priority="2" numLanes="1" speed="2.78" disallow="tram rail_urban rail rail_electric rail_fast ship" oneway="0"/>
    <type id="highway.motorway" priority="14" numLanes="2" speed="39.44" allow="private emergency authority army vip passenger hov taxi bus coach delivery truck trailer motorcycle evehicle custom1 custom2" oneway="1"/>
    <type id="highway.motorway_link" priority="9" numLanes="1" speed="22.22" allow="private emergency authority army vip passenger hov taxi bus coach delivery truck trailer motorcycle evehicle custom1 custom2" oneway="1"/>
    <type id="highway.path" priority="1" numLanes="1" speed="2.78" allow="pedestrian bicycle" oneway="0" width="2.00"/>
    <type id="highway.pedestrian" priority="1" numLanes="1" speed="2.78" allow="pedestrian" oneway="1" width="2.00"/>
    <type id="highway.primary" priority="12" numLanes="2" speed="27.78" disallow="tram rail_urban rail rail_electric rail_fast ship" oneway="0"/>
    <type id="highway.primary_link" priority="7" numLanes="1" speed="22.22" disallow="tram rail_urban rail rail_electric rail_fast ship" oneway="0"/>
    <type id="highway.raceway" priority="15" numLanes="2" speed="83.33" allow="vip" oneway="0"/>
    <type id="highway.residential" priority="3" numLanes="1" speed="13.89" disallow="tram rail_urban rail rail_electric rail_fast ship" oneway="0"/>
    <type id="highway.secondary" priority="11" numLanes="1" speed="27.78" disallow="tram rail_urban rail rail_electric rail_fast ship" oneway="0"/>
    <type id="highway.secondary_link" priority="6" numLanes="1" speed="22.22" disallow="tram rail_urban rail rail_electric rail_fast ship" oneway="0"/>
    <type id="highway.service" priority="1" numLanes="1" speed="5.56" allow="pedestrian delivery bicycle" oneway="0"/>
    <type id="highway.stairs" priority="1" numLanes="1" speed="1.39" allow="pedestrian" oneway="1" width="2.00"/>
    <type id="highway.step" priority="1" numLanes="1" speed="1.39" allow="pedestrian" oneway="1" width="2.00"/>
    <type id="highway.steps" priority="1" numLanes="1" speed="1.39" allow="pedestrian" oneway="1" width="2.00"/>
    <type id="highway.tertiary" priority="10" numLanes="1" speed="22.22" disallow="tram rail_urban rail rail_electric rail_fast ship" oneway="0"/>
    <type id="highway.tertiary_link" priority="5" numLanes="1" speed="22.22" disallow="tram rail_urban rail rail_electric rail_fast ship" oneway="0"/>
    <type id="highway.track" priority="1" numLanes="1" speed="5.56" allow="pedestrian motorcycle moped bicycle" oneway="0"/>
    <type id="highway.trunk" priority="13" numLanes="2" speed="27.78" disallow="pedestrian bicycle tram rail_urban rail rail_electric rail_fast ship" oneway="0"/>
    <type id="highway.trunk_link" priority="8" numLanes="1" speed="22.22" disallow="pedestrian bicycle tram rail_urban rail rail_electric rail_fast ship" oneway="0"/>
    <type id="highway.unclassified" priority="4" numLanes="1" speed="13.89" disallow="tram rail_urban rail rail_electric rail_fast ship" oneway="0"/>
    <type id="highway.unsurfaced" priority="1" numLanes="1" speed="8.33" disallow="tram rail_urban rail rail_electric rail_fast ship" oneway="0"/>
    <type id="railway.highspeed" priority="21" numLanes="1" speed="69.44" allow="rail_fast" oneway="1"/>
    <type id="railway.light_rail" priority="19" numLanes="1" speed="27.78" allow="rail_urban" oneway="1"/>
    <type id="railway.preserved" priority="16" numLanes="1" speed="27.78" allow="rail" oneway="1"/>
    <type id="railway.rail" priority="20" numLanes="1" speed="44.44" allow="rail" oneway="1"/>
    <type id="railway.subway" priority="18" numLanes="1" speed="27.78" allow="rail_urban" oneway="1"/>
    <type id="railway.tram" priority="17" numLanes="1" speed="13.89" allow="tram" oneway="1"/>

    <edge id=":1012232792_0" function="internal">
        <lane id=":1012232792_0_0" index="0" allow="pedestrian delivery bicycle" speed="4.25" length="3.54" shape="2698.49,1511.78 2697.98,1511.96 2697.74,1512.83 2697.61,1513.96 2697.45,1514.91"/>
    </edge>
    <edge id=":1012232792_1" function="internal">
        <lane id=":1012232792_1_0" index="0" allow="pedestrian delivery bicycle" speed="4.46" length="3.18" shape="2700.06,1505.91 2699.79,1506.72 2699.51,1507.60 2699.44,1508.37 2699.82,1508.87"/>
    </edge>
    <edge id=":1012232792_2" function="internal">
        <lane id=":1012232792_2_0" index="0" disallow="tram rail_urban rail rail_electric rail_fast ship" speed="11.11" length="9.27" shape="2700.06,1505.91 2697.45,1514.91"/>
        <lane id=":1012232792_2_1" index="1" disallow="tram rail_urban rail rail_electric rail_fast ship" speed="11.11" length="9.27" shape="2696.95,1505.12 2694.40,1513.94"/>
    </edge>
    <edge id=":1012236385_0" function="internal">
        <lane id=":1012236385_0_0" index="0" allow="pedestrian delivery bicycle" speed="8.34" length="9.57" shape="2622.88,1665.42 2620.12,1666.20 2618.10,1666.67 2616.41,1667.58 2614.66,1669.64"/>
    </edge>
    <edge id=":1012236385_1" function="internal">
        <lane id=":1012236385_1_0" index="0" allow="pedestrian delivery bicycle" speed="4.37" length="6.03" shape="2622.63,1658.11 2621.18,1660.38 2620.56,1661.85 2620.77,1662.53 2621.81,1662.41"/>
    </edge>
    <edge id=":1012236385_2" function="internal">
        <lane id=":1012236385_2_0" index="0" disallow="tram rail_urban rail rail_electric rail_fast ship" speed="11.11" length="14.05" shape="2622.63,1658.11 2614.66,1669.64"/>
        <lane id=":1012236385_2_1" index="1" disallow="tram rail_urban rail rail_electric rail_fast ship" speed="11.11" length="14.05" shape="2620.00,1656.28 2611.99,1667.87"/>
    </edge>
    <edge id=":1112781936_0" function="internal">
        <lane id=":1112781936_0_0" index="0" disallow="tram rail_urban rail rail_electric rail_fast ship" speed="11.11" length="9.06" shape="893.64,1234.16 895.86,1235.38 897.49,1235.98 899.18,1236.48 901.57,1237.37"/>
        <lane id=":1112781936_0_1" index="1" disallow="tram rail_urban rail rail_electric rail_fast ship" speed="11.11" length="9.06" shape="891.96,1236.88 894.30,1238.17 896.02,1238.82 897.80,1239.36 900.32,1240.31"/>
        <lane id=":1112781936_0_2" index="2" disallow="tram rail_urban rail rail_electric rail_fast ship" speed="11.11" length="9.06" shape="890.27,1239.60 892.74,1240.97 894.54,1241.67 896.41,1242.25 899.06,1243.25"/>
    </edge>
    <edge id=":1112836807_0" function="internal">
        <lane id=":1112836807_0_0" index="0" disallow="tram rail_urban rail rail_electric rail_fast ship" speed="6.23" length="7.98" shape="2610.25,1045.86 2611.98,1045.03 2613.04,1043.67 2613.41,1041.79 2613.11,1039.40"/>
    </edge>
    <edge id=":1112836807_1" function="internal">
        <lane id=":1112836807_1_0" index="0" disallow="tram rail_urban rail rail_electric rail_fast ship" speed="27.78" length="9.77" shape="2610.25,1045.86 2619.71,1043.42"/>
    </edge>
    <edge id=":1112836916_0" function="internal">
        <lane id=":1112836916_0_0" index="0" disallow="tram rail_urban rail rail_electric rail_fast ship" speed="6.44" length="9.03" shape="2588.06,935.57 2587.14,933.26 2585.70,931.82 2583.75,931.26 2581.28,931.57"/>
    </edge>
    <edge id=":1112836916_1" function="internal">
        <lane id=":1112836916_1_0" index="0" disallow="tram rail_urban rail rail_electric rail_fast ship" speed="13.89" length="14.37" shape="2588.06,935.57 2584.85,921.56"/>
    </edge>
    <edge id=":1112836916_2" function="internal">
        <lane id=":1112836916_2_0" index="0" disallow="tram rail_urban rail rail_electric rail_fast ship" speed="6.71" length="9.26" shape="2580.43,928.49 2582.80,927.48 2584.33,925.99 2585.01,924.01 2584.85,921.56"/>
    </edge>
    <edge id=":1112836916_3" function="internal">
        <lane id=":1112836916_3_0" index="0" disallow="tram rail_urban rail rail_electric rail_fast ship" speed="3.65" length="2.56" shape="2580.43,928.49 2581.80,928.94 2582.40,929.61 2582.36,929.82"/>
    </edge>
    <edge id=":1112836916_4" function="internal">
        <lane id=":1112836916_4_0" index="0" disallow="tram rail_urban rail rail_electric rail_fast ship" speed="3.65" length="2.11" shape="2582.36,929.82 2582.23,930.48 2581.28,931.57"/>
    </edge>
    <edge id=":1112836966_0" function="internal">
        <lane id=":1112836966_0_0" index="0" disallow="tram rail_urban rail rail_electric rail_fast ship" speed="9.35" length="14.59" shape="2472.69,970.49 2473.05,966.30 2474.30,962.93 2476.42,960.38 2479.44,958.67"/>
    </edge>
    <edge id=":1112836966_1" function="internal">
        <lane id=":1112836966_1_0" index="0" disallow="tram rail_urban rail rail_electric rail_fast ship" speed="3.65" length="4.67" shape="2472.69,970.49 2473.47,969.28 2474.26,968.86 2475.07,969.25 2475.89,970.43"/>
    </edge>
    <edge id=":1112836966_2" function="internal">
        <lane id=":1112836966_2_0" index="0" disallow="tram rail_urban rail rail_electric rail_fast ship" speed="8.06" length="10.64" shape="2480.57,961.66 2478.47,962.89 2477.00,964.76 2476.14,967.27 2475.89,970.43"/>
    </edge>
    <edge id=":1112836966_3" function="internal">
        <lane id=":1112836966_3_0" index="0" disallow="tram rail_urban rail rail_electric rail_fast ship" speed="13.89" length="14.50" shape="2480.57,961.66 2477.11,962.90 2473.71,964.01 2470.28,965.03 2466.74,966.01"/>
    </edge>
    <edge id=":1112836966_4" function="internal">
        <lane id=":1112836966_4_0" index="0" disallow="tram rail_urban rail rail_electric rail_fast ship" speed="3.65" length="2.34" shape="2480.57,961.66 2479.16,961.34 2478.50,960.73"/>
    </edge>
    <edge id=":1112836966_8" function="internal">
        <lane id=":1112836966_8_0" index="0" disallow="tram rail_urban rail rail_electric rail_fast ship" speed="3.65" length="2.34" shape="2478.50,960.73 2478.60,959.84 2479.44,958.67"/>
    </edge>
    <edge id=":1112836966_5" function="internal">
        <lane id=":1112836966_5_0" index="0" disallow="tram rail_urban rail rail_electric rail_fast ship" speed="13.89" length="14.18" shape="2465.92,962.92 2469.41,961.96 2472.73,960.97 2476.03,959.89 2479.44,958.67"/>
    </edge>
    <edge id=":1112836966_6" function="internal">
        <lane id=":1112836966_6_0" index="0" disallow="tram rail_urban rail rail_electric rail_fast ship" speed="7.63" length="5.93" shape="2465.92,962.92 2470.21,962.40 2471.73,962.93"/>
    </edge>
    <edge id=":1112836966_7" function="internal">
        <lane id=":1112836966_7_0" index="0" disallow="tram rail_urban rail rail_electric rail_fast ship" speed="3.65" length="2.34" shape="2465.92,962.92 2467.28,963.38 2467.88,964.05"/>
    </edge>
    <edge id=":1112836966_9" function="internal">
        <lane id=":1112836966_9_0" index="0" disallow="tram rail_urban rail rail_electric rail_fast ship" speed="7.63" length="9.28" shape="2471.73,962.93 2473.31,963.49 2475.20,966.16 2475.89,970.43"/>
    </edge>
    <edge id=":1112836966_10" function="internal">
        <lane id=":1112836966_10_0" index="0" disallow="tram rail_urban rail rail_electric rail_fast ship" speed="3.65" length="2.34" shape="2467.88,964.05 2467.70,964.93 2466.74,966.01"/>
    </edge>
    <edge id=":1112837012_0" function="internal">
        <lane id=":1112837012_0_0" index="0" disallow="tram rail_urban rail rail_electric rail_fast ship" speed="6.46" length="9.03" shape="2574.38,873.16 2573.52,870.83 2572.12,869.35 2570.19,868.73 2567.71,868.96"/>
    </edge>
    <edge id=":1112837012_1" function="internal">
        <lane id=":1112837012_1_0" index="0" disallow="tram rail_urban rail rail_electric rail_fast ship" speed="7.41" length="11.74" shape="2574.38,873.16 2573.90,869.29 2574.31,866.35 2575.61,864.32 2577.80,863.20"/>
    </edge>
    <edge id=":1112837012_2" function="internal">
        <lane id=":1112837012_2_0" index="0" disallow="tram rail_urban rail rail_electric rail_fast ship" speed="22.22" length="11.19" shape="2578.58,866.30 2567.71,868.96"/>
    </edge>
    <edge id=":1112837012_3" function="internal">
        <lane id=":1112837012_3_0" index="0" disallow="tram rail_urban rail rail_electric rail_fast ship" speed="22.22" length="11.15" shape="2566.97,865.85 2577.80,863.20"/>
    </edge>
    <edge id=":1112892976_0" function="internal">
        <lane id=":1112892976_0_0" index="0" disallow="tram rail_urban rail rail_electric rail_fast ship" speed="11.11" length="1.66" shape="1224.70,1375.23 1225.29,1375.47 1225.65,1375.71 1226.01,1375.99 1226.56,1376.32"/>
        <lane id=":1112892976_0_1" index="1" disallow="tram rail_urban rail rail_electric rail_fast ship" speed="11.11" length="1.66" shape="1223.71,1378.27 1224.16,1378.47 1224.42,1378.67 1224.68,1378.90 1225.10,1379.16"/>
        <lane id=":1112892976_0_2" index="2" disallow="tram rail_urban rail rail_electric rail_fast ship" speed="11.11" length="1.66" shape="1222.72,1381.31 1223.03,1381.46 1223.19,1381.63 1223.36,1381.82 1223.64,1382.01"/>
    </edge>
    <edge id=":1112893047_0" function="internal">
        <lane id=":1112893047_0_0" index="0" disallow="tram rail_urban rail rail_electric rail_fast ship" speed="11.11" length="5.37" shape="1110.87,1324.72 1115.88,1326.82"/>
        <lane id=":1112893047_0_1" index="1" disallow="tram rail_urban rail rail_electric rail_fast ship" speed="11.11" length="5.37" shape="1109.66,1327.68 1114.61,1329.75"/>
        <lane id=":1112893047_0_2" index="2" disallow="tram rail_urban rail rail_electric rail_fast ship" speed="11.11" length="5.37" shape="1108.44,1330.64 1113.33,1332.69"/>
    </edge>
    <edge id=":1112893049_0" function="internal">
        <lane id=":1112893049_0_0" index="0" disallow="tram rail_urban rail rail_electric rail_fast ship" speed="13.89" length="9.16" shape="994.46,1055.25 992.89,1057.43 991.56,1058.72 990.02,1059.82 987.83,1061.44"/>
    </edge>
    <edge id=":1112893049_1" function="internal">
        <lane id=":1112893049_1_0" index="0" disallow="tram rail_urban rail rail_electric rail_fast ship" speed="3.65" length="2.34" shape="994.46,1055.25 993.14,1055.83 992.25,1055.73"/>
    </edge>
    <edge id=":1112893049_4" function="internal">
        <lane id=":1112893049_4_0" index="0" disallow="tram rail_urban rail rail_electric rail_fast ship" speed="3.65" length="2.34" shape="992.25,1055.73 991.79,1054.96 991.77,1053.52"/>
    </edge>
    <edge id=":1112893049_2" function="internal">
        <lane id=":1112893049_2_0" index="0" disallow="tram rail_urban rail rail_electric rail_fast ship" speed="13.89" length="8.10" shape="985.85,1058.93 987.79,1057.51 989.17,1056.56 990.37,1055.44 991.77,1053.52"/>
    </edge>
    <edge id=":1112893049_3" function="internal">
        <lane id=":1112893049_3_0" index="0" disallow="tram rail_urban rail rail_electric rail_fast ship" speed="3.65" length="2.34" shape="985.85,1058.93 987.28,1058.81 988.09,1059.19"/>
    </edge>
    <edge id=":1112893049_5" function="internal">
        <lane id=":1112893049_5_0" index="0" disallow="tram rail_urban rail rail_electric rail_fast ship" speed="3.65" length="2.34" shape="988.09,1059.19 988.28,1060.07 987.83,1061.44"/>
    </edge>
    <edge id=":1305141629_0" function="internal">
        <lane id=":1305141629_0_0" index="0" disallow="tram rail_urban rail rail_electric rail_fast ship" speed="13.89" length="5.04" shape="1580.68,1619.51 1577.99,1623.77"/>
    </edge>
    <edge id=":1305141629_1" function="internal">
        <lane id=":1305141629_1_0" index="0" disallow="tram rail_urban rail rail_electric rail_fast ship" speed="3.65" length="2.34" shape="1580.68,1619.51 1579.36,1620.09 1578.47,1620.00"/>
    </edge>
    <edge id=":1305141629_4" function="internal">
        <lane id=":1305141629_4_0" index="0" disallow="tram rail_urban rail rail_electric rail_fast ship" speed="3.65" length="2.34" shape="1578.47,1620.00 1578.01,1619.23 1577.99,1617.78"/>
    </edge>
    <edge id=":1305141629_2" function="internal">
        <lane id=":1305141629_2_0" index="0" disallow="tram rail_urban rail rail_electric rail_fast ship" speed="13.89" length="5.09" shape="1575.27,1622.09 1577.99,1617.78"/>
    </edge>
    <edge id=":1305141629_3" function="internal">
        <lane id=":1305141629_3_0" index="0" disallow="tram rail_urban rail rail_electric rail_fast ship" speed="3.65" length="2.34" shape="1575.27,1622.09 1576.58,1621.49 1577.47,1621.57"/>
    </edge>
    <edge id=":1305141629_5" function="internal">
        <lane id=":1305141629_5_0" index="0" disallow="tram rail_urban rail rail_electric rail_fast ship" speed="3.65" length="2.34" shape="1577.47,1621.57 1577.94,1622.33 1577.99,1623.77"/>
    </edge>
    <edge id=":1305141635_0" function="internal">
        <lane id=":1305141635_0_0" index="0" disallow="tram rail_urban rail rail_electric rail_fast ship" speed="13.89" length="4.96" shape="1666.63,1720.10 1662.23,1717.82"/>
    </edge>
    <edge id=":1305141636_0" function="internal">
        <lane id=":1305141636_0_0" index="0" disallow="tram rail_urban rail rail_electric rail_fast ship" speed="6.29" length="9.04" shape="2037.67,1774.65 2036.62,1776.93 2036.60,1778.94 2037.62,1780.67 2039.67,1782.12"/>
    </edge>
    <edge id=":1305141636_1" function="internal">
        <lane id=":1305141636_1_0" index="0" disallow="tram rail_urban rail rail_electric rail_fast ship" speed="11.11" length="11.12" shape="2029.66,1777.12 2039.67,1782.12"/>
        <lane id=":1305141636_1_1" index="1" disallow="tram rail_urban rail rail_electric rail_fast ship" speed="11.11" length="11.12" shape="2028.26,1779.99 2038.21,1784.97"/>
        <lane id=":1305141636_1_2" index="2" disallow="tram rail_urban rail rail_electric rail_fast ship" speed="11.11" length="11.12" shape="2026.86,1782.87 2036.76,1787.82"/>
    </edge>
    <edge id=":1305141638_0" function="internal">
        <lane id=":1305141638_0_0" index="0" disallow="tram rail_urban rail rail_electric rail_fast ship" speed="13.89" length="5.04" shape="1777.92,1719.35 1775.35,1723.69"/>
    </edge>
    <edge id=":1305141638_1" function="internal">
        <lane id=":1305141638_1_0" index="0" disallow="tram rail_urban rail rail_electric rail_fast ship" speed="3.65" length="2.34" shape="1777.92,1719.35 1776.62,1719.98 1775.73,1719.92"/>
    </edge>
    <edge id=":1305141638_4" function="internal">
        <lane id=":1305141638_4_0" index="0" disallow="tram rail_urban rail rail_electric rail_fast ship" speed="3.65" length="2.34" shape="1775.73,1719.92 1775.24,1719.17 1775.16,1717.73"/>
    </edge>
    <edge id=":1305141638_2" function="internal">
        <lane id=":1305141638_2_0" index="0" disallow="tram rail_urban rail rail_electric rail_fast ship" speed="13.89" length="5.01" shape="1772.60,1722.04 1775.16,1717.73"/>
    </edge>
    <edge id=":1305141638_3" function="internal">
        <lane id=":1305141638_3_0" index="0" disallow="tram rail_urban rail rail_electric rail_fast ship" speed="3.65" length="2.34" shape="1772.60,1722.04 1773.91,1721.43 1774.80,1721.49"/>
    </edge>
    <edge id=":1305141638_5" function="internal">
        <lane id=":1305141638_5_0" index="0" disallow="tram rail_urban rail rail_electric rail_fast ship" speed="3.65" length="2.34" shape="1774.80,1721.49 1775.28,1722.25 1775.35,1723.69"/>
    </edge>
    <edge id=":1305800094_0" function="internal">
        <lane id=":1305800094_0_0" index="0" disallow="tram rail_urban rail rail_electric rail_fast ship" speed="3.65" length="4.67" shape="2186.05,50.62 2186.99,49.53 2187.84,49.24 2188.58,49.74 2189.22,51.03"/>
    </edge>
    <edge id=":1348916130_0" function="internal">
        <lane id=":1348916130_0_0" index="0" disallow="tram rail_urban rail rail_electric rail_fast ship" speed="22.22" length="14.29" shape="2781.32,817.03 2767.34,820.00"/>
    </edge>
    <edge id=":1348916130_1" function="internal">
        <lane id=":1348916130_1_0" index="0" disallow="tram rail_urban rail rail_electric rail_fast ship" speed="8.00" length="5.81" shape="2781.32,817.03 2777.44,817.25 2775.62,816.61"/>
    </edge>
    <edge id=":1348916130_2" function="internal">
        <lane id=":1348916130_2_0" index="0" disallow="tram rail_urban rail rail_electric rail_fast ship" speed="3.65" length="2.34" shape="2781.32,817.03 2779.98,816.48 2779.43,815.78"/>
    </edge>
    <edge id=":1348916130_9" function="internal">
        <lane id=":1348916130_9_0" index="0" disallow="tram rail_urban rail rail_electric rail_fast ship" speed="8.00" length="8.38" shape="2775.62,816.61 2774.41,816.18 2772.25,813.81 2770.96,810.14"/>
    </edge>
    <edge id=":1348916130_10" function="internal">
        <lane id=":1348916130_10_0" index="0" disallow="tram rail_urban rail rail_electric rail_fast ship" speed="3.65" length="2.34" shape="2779.43,815.78 2779.67,814.92 2780.69,813.90"/>
    </edge>
    <edge id=":1348916130_3" function="internal">
        <lane id=":1348916130_3_0" index="0" disallow="tram rail_urban rail rail_electric rail_fast ship" speed="6.51" length="9.03" shape="2774.09,809.51 2774.92,811.84 2776.29,813.35 2778.22,814.04 2780.69,813.90"/>
    </edge>
    <edge id=":1348916130_4" function="internal">
        <lane id=":1348916130_4_0" index="0" disallow="tram rail_urban rail rail_electric rail_fast ship" speed="8.06" length="14.16" shape="2774.09,809.51 2774.32,813.39 2773.27,816.43 2770.94,818.63 2767.34,820.00"/>
    </edge>
    <edge id=":1348916130_5" function="internal">
        <lane id=":1348916130_5_0" index="0" disallow="tram rail_urban rail rail_electric rail_fast ship" speed="3.65" length="4.67" shape="2774.09,809.51 2773.54,810.85 2772.84,811.40 2771.98,811.16 2770.96,810.14"/>
    </edge>
    <edge id=":1348916130_6" function="internal">
        <lane id=":1348916130_6_0" index="0" disallow="tram rail_urban rail rail_electric rail_fast ship" speed="6.57" length="9.08" shape="2766.64,816.88 2768.94,816.00 2770.43,814.59 2771.10,812.63 2770.96,810.14"/>
    </edge>
    <edge id=":1348916130_7" function="internal">
        <lane id=":1348916130_7_0" index="0" disallow="tram rail_urban rail rail_electric rail_fast ship" speed="22.22" length="14.36" shape="2766.64,816.88 2780.69,813.90"/>
    </edge>
    <edge id=":1348916130_8" function="internal">
        <lane id=":1348916130_8_0" index="0" disallow="tram rail_urban rail rail_electric rail_fast ship" speed="3.65" length="2.34" shape="2766.64,816.88 2767.98,817.40 2768.55,818.09"/>
    </edge>
    <edge id=":1348916130_11" function="internal">
        <lane id=":1348916130_11_0" index="0" disallow="tram rail_urban rail rail_electric rail_fast ship" speed="3.65" length="2.34" shape="2768.55,818.09 2768.33,818.96 2767.34,820.00"/>
    </edge>
    <edge id=":1348916143_0" function="internal">
        <lane id=":1348916143_0_0" index="0" disallow="tram rail_urban rail rail_electric rail_fast ship" speed="6.21" length="9.05" shape="2787.94,712.19 2785.44,711.76 2783.52,712.28 2782.17,713.75 2781.40,716.16"/>
    </edge>
    <edge id=":1348916143_1" function="internal">
        <lane id=":1348916143_1_0" index="0" disallow="tram rail_urban rail rail_electric rail_fast ship" speed="13.89" length="14.36" shape="2787.94,712.19 2784.48,711.04 2781.15,709.85 2777.86,708.59 2774.49,707.18"/>
    </edge>
    <edge id=":1348916143_2" function="internal">
        <lane id=":1348916143_2_0" index="0" disallow="tram rail_urban rail rail_electric rail_fast ship" speed="3.65" length="2.34" shape="2787.94,712.19 2787.04,711.06 2786.91,710.18"/>
    </edge>
    <edge id=":1348916143_9" function="internal">
        <lane id=":1348916143_9_0" index="0" disallow="tram rail_urban rail rail_electric rail_fast ship" speed="3.65" length="2.34" shape="2786.91,710.18 2787.54,709.54 2788.92,709.15"/>
    </edge>
    <edge id=":1348916143_3" function="internal">
        <lane id=":1348916143_3_0" index="0" disallow="tram rail_urban rail rail_electric rail_fast ship" speed="13.89" length="14.05" shape="2775.76,704.25 2779.08,705.63 2782.28,706.86 2785.51,708.01 2788.92,709.15"/>
    </edge>
    <edge id=":1348916143_4" function="internal">
        <lane id=":1348916143_4_0" index="0" disallow="tram rail_urban rail rail_electric rail_fast ship" speed="8.85" length="5.46" shape="2775.76,704.25 2778.78,706.15 2779.91,707.66"/>
    </edge>
    <edge id=":1348916143_5" function="internal">
        <lane id=":1348916143_5_0" index="0" disallow="tram rail_urban rail rail_electric rail_fast ship" speed="3.65" length="2.34" shape="2775.76,704.25 2776.54,705.46 2776.59,706.35"/>
    </edge>
    <edge id=":1348916143_10" function="internal">
        <lane id=":1348916143_10_0" index="0" disallow="tram rail_urban rail rail_electric rail_fast ship" speed="8.85" length="8.89" shape="2779.91,707.66 2780.73,708.77 2781.60,712.10 2781.40,716.16"/>
    </edge>
    <edge id=":1348916143_11" function="internal">
        <lane id=":1348916143_11_0" index="0" disallow="tram rail_urban rail rail_electric rail_fast ship" speed="3.65" length="2.34" shape="2776.59,706.35 2775.91,706.93 2774.49,707.18"/>
    </edge>
    <edge id=":1348916143_6" function="internal">
        <lane id=":1348916143_6_0" index="0" disallow="tram rail_urban rail rail_electric rail_fast ship" speed="7.50" length="10.06" shape="2778.25,715.64 2778.41,712.72 2777.84,710.34 2776.53,708.49 2774.49,707.18"/>
    </edge>
    <edge id=":1348916143_7" function="internal">
        <lane id=":1348916143_7_0" index="0" disallow="tram rail_urban rail rail_electric rail_fast ship" speed="7.76" length="14.78" shape="2778.25,715.64 2779.51,711.69 2781.71,709.30 2784.84,708.45 2788.92,709.15"/>
    </edge>
    <edge id=":1348916143_8" function="internal">
        <lane id=":1348916143_8_0" index="0" disallow="tram rail_urban rail rail_electric rail_fast ship" speed="3.65" length="4.67" shape="2778.25,715.64 2779.23,714.58 2780.09,714.32 2780.81,714.85 2781.40,716.16"/>
    </edge>
    <edge id=":1348916144_0" function="internal">
        <lane id=":1348916144_0_0" index="0" disallow="tram rail_urban rail rail_electric rail_fast ship" speed="22.22" length="14.34" shape="2946.78,782.35 2932.74,785.30"/>
    </edge>
    <edge id=":1348916144_1" function="internal">
        <lane id=":1348916144_1_0" index="0" disallow="tram rail_urban rail rail_electric rail_fast ship" speed="7.87" length="5.87" shape="2946.78,782.35 2942.77,782.58 2941.04,781.92"/>
    </edge>
    <edge id=":1348916144_2" function="internal">
        <lane id=":1348916144_2_0" index="0" disallow="tram rail_urban rail rail_electric rail_fast ship" speed="3.65" length="2.34" shape="2946.78,782.35 2945.44,781.81 2944.89,781.10"/>
    </edge>
    <edge id=":1348916144_9" function="internal">
        <lane id=":1348916144_9_0" index="0" disallow="tram rail_urban rail rail_electric rail_fast ship" speed="7.87" length="8.63" shape="2941.04,781.92 2939.74,781.44 2937.71,778.93 2936.66,775.05"/>
    </edge>
    <edge id=":1348916144_10" function="internal">
        <lane id=":1348916144_10_0" index="0" disallow="tram rail_urban rail rail_electric rail_fast ship" speed="3.65" length="2.34" shape="2944.89,781.10 2945.13,780.24 2946.14,779.22"/>
    </edge>
    <edge id=":1348916144_3" function="internal">
        <lane id=":1348916144_3_0" index="0" disallow="tram rail_urban rail rail_electric rail_fast ship" speed="6.35" length="9.04" shape="2939.83,774.66 2940.49,777.08 2941.76,778.64 2943.64,779.36 2946.14,779.22"/>
    </edge>
    <edge id=":1348916144_4" function="internal">
        <lane id=":1348916144_4_0" index="0" disallow="tram rail_urban rail rail_electric rail_fast ship" speed="8.31" length="14.29" shape="2939.83,774.66 2939.80,778.64 2938.60,781.74 2936.25,783.96 2932.74,785.30"/>
    </edge>
    <edge id=":1348916144_5" function="internal">
        <lane id=":1348916144_5_0" index="0" disallow="tram rail_urban rail rail_electric rail_fast ship" speed="3.65" length="4.67" shape="2939.83,774.66 2939.18,775.95 2938.44,776.45 2937.60,776.15 2936.66,775.05"/>
    </edge>
    <edge id=":1348916144_6" function="internal">
        <lane id=":1348916144_6_0" index="0" disallow="tram rail_urban rail rail_electric rail_fast ship" speed="6.88" length="9.48" shape="2932.05,782.17 2934.34,781.29 2935.87,779.81 2936.64,777.73 2936.66,775.05"/>
    </edge>
    <edge id=":1348916144_7" function="internal">
        <lane id=":1348916144_7_0" index="0" disallow="tram rail_urban rail rail_electric rail_fast ship" speed="22.22" length="14.40" shape="2932.05,782.17 2946.14,779.22"/>
    </edge>
    <edge id=":1348916144_8" function="internal">