<additional xmlns:xsi="http://www.w3.org/2001/XMLSchema-instance" xsi:noNamespaceSchemaLocation="http://sumo.dlr.de/xsd/additional_file.xsd">
    <laneAreaDetector file="e2output.xml" freq="60" speedThreshold="100" friendlyPos="x" id="e2det_-197990142#0_0" lane="-197990142#0_0" length="140.19" pos="0"/>
    <laneAreaDetector file="e2output.xml" freq="60" speedThreshold="100" friendlyPos="x" id="e2det_777638882#4_0" lane="777638882#4_0" length="137.05" pos="0"/>
    <laneAreaDetector file="e2output.xml" freq="60" speedThreshold="100" friendlyPos="x" id="e2det_892242924_0" lane="892242924_0" length="114.80000000000001" pos="0"/>
    <laneAreaDetector file="e2output.xml" freq="60" speedThreshold="100" friendlyPos="x" id="e2det_892242924_1" lane="892242924_1" length="114.80000000000001" pos="0"/>
    <laneAreaDetector file="e2output.xml" freq="60" speedThreshold="100" friendlyPos="x" id="e2det_892242924_2" lane="892242924_2" length="114.80000000000001" pos="0"/>
    <laneAreaDetector file="e2output.xml" freq="60" speedThreshold="100" friendlyPos="x" id="e2det_892242924_3" lane="892242924_3" length="114.80000000000001" pos="0"/>
    <laneAreaDetector file="e2output.xml" freq="60" speedThreshold="100" friendlyPos="x" id="e2det_892242924_4" lane="892242924_4" length="114.80000000000001" pos="0"/>
    <laneAreaDetector file="e2output.xml" freq="60" speedThreshold="100" friendlyPos="x" id="e2det_892242924_5" lane="892242924_5" length="114.80000000000001" pos="0"/>
    <laneAreaDetector file="e2output.xml" freq="60" speedThreshold="100" friendlyPos="x" id="e2det_-289715808_0" lane="-289715808_0" length="0.1" pos="0"/>
    <laneAreaDetector file="e2output.xml" freq="60" speedThreshold="100" friendlyPos="x" id="e2det_126562256_0" lane="126562256_0" length="80.69000000000001" pos="0"/>
    <laneAreaDetector file="e2output.xml" freq="60" speedThreshold="100" friendlyPos="x" id="e2det_476017133#1_0" lane="476017133#1_0" length="92.37" pos="0"/>
    <laneAreaDetector file="e2output.xml" freq="60" speedThreshold="100" friendlyPos="x" id="e2det_476017133#1_1" lane="476017133#1_1" length="92.37" pos="0"/>
    <laneAreaDetector file="e2output.xml" freq="60" speedThreshold="100" friendlyPos="x" id="e2det_476017133#1_2" lane="476017133#1_2" length="92.37" pos="0"/>
    <laneAreaDetector file="e2output.xml" freq="60" speedThreshold="100" friendlyPos="x" id="e2det_-429311862#0_0" lane="-429311862#0_0" length="105.77000000000001" pos="0"/>
    <laneAreaDetector file="e2output.xml" freq="60" speedThreshold="100" friendlyPos="x" id="e2det_289715808_0" lane="289715808_0" length="0.1" pos="0"/>
    <laneAreaDetector file="e2output.xml" freq="60" speedThreshold="100" friendlyPos="x" id="e2det_544150339#12_0" lane="544150339#12_0" length="81.14" pos="0"/>
    <laneAreaDetector file="e2output.xml" freq="60" speedThreshold="100" friendlyPos="x" id="e2det_544150339#12_1" lane="544150339#12_1" length="81.14" pos="0"/>
    <laneAreaDetector file="e2output.xml" freq="60" speedThreshold="100" friendlyPos="x" id="e2det_544150339#12_2" lane="544150339#12_2" length="81.14" pos="0"/>
    <laneAreaDetector file="e2output.xml" freq="60" speedThreshold="100" friendlyPos="x" id="e2det_-547303095#0_0" lane="-547303095#0_0" length="39.22" pos="1.4155343563970746e-15"/>
    <laneAreaDetector file="e2output.xml" freq="60" speedThreshold="100" friendlyPos="x" id="e2det_547303094#5_0" lane="547303094#5_0" length="48.89" pos="1.4155343563970746e-15"/>
    <laneAreaDetector file="e2output.xml" freq="60" speedThreshold="100" friendlyPos="x" id="e2det_654398326#2_0" lane="654398326#2_0" length="67.31" pos="0"/>
    <laneAreaDetector file="e2output.xml" freq="60" speedThreshold="100" friendlyPos="x" id="e2det_-547303098#0_0" lane="-547303098#0_0" length="23.34" pos="1.4155343563970746e-15"/>
    <laneAreaDetector file="e2output.xml" freq="60" speedThreshold="100" friendlyPos="x" id="e2det_34905732#1_0" lane="34905732#1_0" length="0.1" pos="0"/>
    <laneAreaDetector file="e2output.xml" freq="60" speedThreshold="100" friendlyPos="x" id="e2det_34905732#1_1" lane="34905732#1_1" length="0.1" pos="0"/>
    <laneAreaDetector file="e2output.xml" freq="60" speedThreshold="100" friendlyPos="x" id="e2det_547303102#1_0" lane="547303102#1_0" length="12.38" pos="0"/>
    <laneAreaDetector file="e2output.xml" freq="60" speedThreshold="100" friendlyPos="x" id="e2det_-741596120_0" lane="-741596120_0" length="0.1" pos="0"/>
    <laneAreaDetector file="e2output.xml" freq="60" speedThreshold="100" friendlyPos="x" id="e2det_753881999_0" lane="753881999_0" length="111.37" pos="0"/>
    <laneAreaDetector file="e2output.xml" freq="60" speedThreshold="100" friendlyPos="x" id="e2det_754295231_0" lane="754295231_0" length="129.16" pos="0"/>
    <laneAreaDetector file="e2output.xml" freq="60" speedThreshold="100" friendlyPos="x" id="e2det_-741596484#0_0" lane="-741596484#0_0" length="121.93" pos="0"/>
    <laneAreaDetector file="e2output.xml" freq="60" speedThreshold="100" friendlyPos="x" id="e2det_174921088#1_0" lane="174921088#1_0" length="167.63" pos="0"/>
    <laneAreaDetector file="e2output.xml" freq="60" speedThreshold="100" friendlyPos="x" id="e2det_599527556_0" lane="599527556_0" length="46.08" pos="1.4155343563970746e-15"/>
    <laneAreaDetector file="e2output.xml" freq="60" speedThreshold="100" friendlyPos="x" id="e2det_741596485#2_0" lane="741596485#2_0" length="91.77000000000001" pos="0"/>
    <laneAreaDetector file="e2output.xml" freq="60" speedThreshold="100" friendlyPos="x" id="e2det_197990142#1_0" lane="197990142#1_0" length="70.33000000000001" pos="0"/>
    <laneAreaDetector file="e2output.xml" freq="60" speedThreshold="100" friendlyPos="x" id="e2det_34907311#11_0" lane="34907311#11_0" length="93.77000000000001" pos="0"/>
    <laneAreaDetector file="e2output.xml" freq="60" speedThreshold="100" friendlyPos="x" id="e2det_547303100_0" lane="547303100_0" length="60.43" pos="1.4155343563970746e-15"/>
    <laneAreaDetector file="e2output.xml" freq="60" speedThreshold="100" friendlyPos="x" id="e2det_741596120_0" lane="741596120_0" length="0.1" pos="0"/>
    <laneAreaDetector file="e2output.xml" freq="60" speedThreshold="100" friendlyPos="x" id="e2det_547303095#6_0" lane="547303095#6_0" length="102.39" pos="0"/>
</additional>
