<?xml version="1.0" encoding="UTF-8"?>

<!-- generated on 2021-06-13 02:09:25 by Eclipse SUMO netgenerate Version 1.9.2
<configuration xmlns:xsi="http://www.w3.org/2001/XMLSchema-instance" xsi:noNamespaceSchemaLocation="http://sumo.dlr.de/xsd/netgenerateConfiguration.xsd">

    <grid_network>
        <grid value="true"/>
        <grid.x-number value="3"/>
        <grid.y-number value="6"/>
        <grid.x-length value="200"/>
        <grid.y-length value="100"/>
    </grid_network>

    <input>
        <type-files value="edge.typ.xml"/>
    </input>

    <output>
        <output-file value="grid.net.xml"/>
    </output>

    <building_defaults>
        <default.type value="two_lane"/>
        <default-junction-type value="traffic_light"/>
    </building_defaults>

    <junctions>
        <no-turnarounds value="true"/>
    </junctions>

</configuration>
-->

<net version="1.9" junctionCornerDetail="5" limitTurnSpeed="5.50" xmlns:xsi="http://www.w3.org/2001/XMLSchema-instance" xsi:noNamespaceSchemaLocation="http://sumo.dlr.de/xsd/net_file.xsd">

    <location netOffset="0.00,0.00" convBoundary="0.00,0.00,400.00,500.00" origBoundary="0.00,0.00,400.00,500.00" projParameter="!"/>

    <type id="two_lane" numLanes="2" speed="44.00"/>

    <edge id=":A0_0" function="internal">
        <lane id=":A0_0_0" index="0" speed="8.96" length="18.06" shape="-4.80,6.40 -4.10,1.50 -2.00,-2.00 1.50,-4.10 6.40,-4.80"/>
        <lane id=":A0_0_1" index="1" speed="7.66" length="12.90" shape="-1.60,6.40 -1.10,2.90 0.40,0.40 2.90,-1.10 6.40,-1.60"/>
    </edge>
    <edge id=":A0_2" function="internal">
        <lane id=":A0_2_0" index="0" speed="3.90" length="2.58" shape="6.40,4.80 5.70,4.90 5.20,5.20 4.90,5.70 4.80,6.40"/>
        <lane id=":A0_2_1" index="1" speed="6.08" length="7.74" shape="6.40,1.60 4.30,1.90 2.80,2.80 1.90,4.30 1.60,6.40"/>
    </edge>
    <edge id=":A1_0" function="internal">
        <lane id=":A1_0_0" index="0" speed="44.00" length="20.80" shape="-4.80,110.40 -4.80,89.60"/>
        <lane id=":A1_0_1" index="1" speed="44.00" length="20.80" shape="-1.60,110.40 -1.60,89.60"/>
    </edge>
    <edge id=":A1_2" function="internal">
        <lane id=":A1_2_0" index="0" speed="9.26" length="6.96" shape="-1.60,110.40 -0.85,105.15 0.00,103.73"/>
    </edge>
    <edge id=":A1_9" function="internal">
        <lane id=":A1_9_0" index="0" speed="9.26" length="12.40" shape="0.00,103.73 1.40,101.40 5.15,99.15 10.40,98.40"/>
    </edge>
    <edge id=":A1_3" function="internal">
        <lane id=":A1_3_0" index="0" speed="6.51" length="9.03" shape="10.40,104.80 7.95,105.15 6.20,106.20 5.15,107.95 4.80,110.40"/>
        <lane id=":A1_3_1" index="1" speed="8.00" length="14.19" shape="10.40,101.60 6.55,102.15 3.80,103.80 2.15,106.55 1.60,110.40"/>
    </edge>
    <edge id=":A1_5" function="internal">
        <lane id=":A1_5_0" index="0" speed="9.26" length="19.35" shape="10.40,101.60 5.15,100.85 1.40,98.60 -0.85,94.85 -1.60,89.60"/>
    </edge>
    <edge id=":A1_6" function="internal">
        <lane id=":A1_6_0" index="0" speed="6.51" length="9.03" shape="4.80,89.60 5.15,92.05 6.20,93.80 7.95,94.85 10.40,95.20"/>
    </edge>
    <edge id=":A1_7" function="internal">
        <lane id=":A1_7_0" index="0" speed="44.00" length="20.80" shape="4.80,89.60 4.80,110.40"/>
        <lane id=":A1_7_1" index="1" speed="44.00" length="20.80" shape="1.60,89.60 1.60,110.40"/>
    </edge>
    <edge id=":A2_0" function="internal">
        <lane id=":A2_0_0" index="0" speed="44.00" length="20.80" shape="-4.80,210.40 -4.80,189.60"/>
        <lane id=":A2_0_1" index="1" speed="44.00" length="20.80" shape="-1.60,210.40 -1.60,189.60"/>
    </edge>
    <edge id=":A2_2" function="internal">
        <lane id=":A2_2_0" index="0" speed="9.26" length="6.96" shape="-1.60,210.40 -0.85,205.15 -0.00,203.73"/>
    </edge>
    <edge id=":A2_9" function="internal">
        <lane id=":A2_9_0" index="0" speed="9.26" length="12.40" shape="-0.00,203.73 1.40,201.40 5.15,199.15 10.40,198.40"/>
    </edge>
    <edge id=":A2_3" function="internal">
        <lane id=":A2_3_0" index="0" speed="6.51" length="9.03" shape="10.40,204.80 7.95,205.15 6.20,206.20 5.15,207.95 4.80,210.40"/>
        <lane id=":A2_3_1" index="1" speed="8.00" length="14.19" shape="10.40,201.60 6.55,202.15 3.80,203.80 2.15,206.55 1.60,210.40"/>
    </edge>
    <edge id=":A2_5" function="internal">
        <lane id=":A2_5_0" index="0" speed="9.26" length="19.35" shape="10.40,201.60 5.15,200.85 1.40,198.60 -0.85,194.85 -1.60,189.60"/>
    </edge>
    <edge id=":A2_6" function="internal">
        <lane id=":A2_6_0" index="0" speed="6.51" length="9.03" shape="4.80,189.60 5.15,192.05 6.20,193.80 7.95,194.85 10.40,195.20"/>
    </edge>
    <edge id=":A2_7" function="internal">
        <lane id=":A2_7_0" index="0" speed="44.00" length="20.80" shape="4.80,189.60 4.80,210.40"/>
        <lane id=":A2_7_1" index="1" speed="44.00" length="20.80" shape="1.60,189.60 1.60,210.40"/>
    </edge>
    <edge id=":A3_0" function="internal">
        <lane id=":A3_0_0" index="0" speed="44.00" length="20.80" shape="-4.80,310.40 -4.80,289.60"/>
        <lane id=":A3_0_1" index="1" speed="44.00" length="20.80" shape="-1.60,310.40 -1.60,289.60"/>
    </edge>
    <edge id=":A3_2" function="internal">
        <lane id=":A3_2_0" index="0" speed="9.26" length="6.96" shape="-1.60,310.40 -0.85,305.15 0.00,303.73"/>
    </edge>
    <edge id=":A3_9" function="internal">
        <lane id=":A3_9_0" index="0" speed="9.26" length="12.40" shape="0.00,303.73 1.40,301.40 5.15,299.15 10.40,298.40"/>
    </edge>
    <edge id=":A3_3" function="internal">
        <lane id=":A3_3_0" index="0" speed="6.51" length="9.03" shape="10.40,304.80 7.95,305.15 6.20,306.20 5.15,307.95 4.80,310.40"/>
        <lane id=":A3_3_1" index="1" speed="8.00" length="14.19" shape="10.40,301.60 6.55,302.15 3.80,303.80 2.15,306.55 1.60,310.40"/>
    </edge>
    <edge id=":A3_5" function="internal">
        <lane id=":A3_5_0" index="0" speed="9.26" length="19.35" shape="10.40,301.60 5.15,300.85 1.40,298.60 -0.85,294.85 -1.60,289.60"/>
    </edge>
    <edge id=":A3_6" function="internal">
        <lane id=":A3_6_0" index="0" speed="6.51" length="9.03" shape="4.80,289.60 5.15,292.05 6.20,293.80 7.95,294.85 10.40,295.20"/>
    </edge>
    <edge id=":A3_7" function="internal">
        <lane id=":A3_7_0" index="0" speed="44.00" length="20.80" shape="4.80,289.60 4.80,310.40"/>
        <lane id=":A3_7_1" index="1" speed="44.00" length="20.80" shape="1.60,289.60 1.60,310.40"/>
    </edge>
    <edge id=":A4_0" function="internal">
        <lane id=":A4_0_0" index="0" speed="44.00" length="20.80" shape="-4.80,410.40 -4.80,389.60"/>
        <lane id=":A4_0_1" index="1" speed="44.00" length="20.80" shape="-1.60,410.40 -1.60,389.60"/>
    </edge>
    <edge id=":A4_2" function="internal">
        <lane id=":A4_2_0" index="0" speed="9.26" length="6.96" shape="-1.60,410.40 -0.85,405.15 0.00,403.73"/>
    </edge>
    <edge id=":A4_9" function="internal">
        <lane id=":A4_9_0" index="0" speed="9.26" length="12.40" shape="0.00,403.73 1.40,401.40 5.15,399.15 10.40,398.40"/>
    </edge>
    <edge id=":A4_3" function="internal">
        <lane id=":A4_3_0" index="0" speed="6.51" length="9.03" shape="10.40,404.80 7.95,405.15 6.20,406.20 5.15,407.95 4.80,410.40"/>
        <lane id=":A4_3_1" index="1" speed="8.00" length="14.19" shape="10.40,401.60 6.55,402.15 3.80,403.80 2.15,406.55 1.60,410.40"/>
    </edge>
    <edge id=":A4_5" function="internal">
        <lane id=":A4_5_0" index="0" speed="9.26" length="19.35" shape="10.40,401.60 5.15,400.85 1.40,398.60 -0.85,394.85 -1.60,389.60"/>
    </edge>
    <edge id=":A4_6" function="internal">
        <lane id=":A4_6_0" index="0" speed="6.51" length="9.03" shape="4.80,389.60 5.15,392.05 6.20,393.80 7.95,394.85 10.40,395.20"/>
    </edge>
    <edge id=":A4_7" function="internal">
        <lane id=":A4_7_0" index="0" speed="44.00" length="20.80" shape="4.80,389.60 4.80,410.40"/>
        <lane id=":A4_7_1" index="1" speed="44.00" length="20.80" shape="1.60,389.60 1.60,410.40"/>
    </edge>
    <edge id=":A5_0" function="internal">
        <lane id=":A5_0_0" index="0" speed="8.96" length="18.06" shape="6.40,504.80 1.50,504.10 -2.00,502.00 -4.10,498.50 -4.80,493.60"/>
        <lane id=":A5_0_1" index="1" speed="7.66" length="12.90" shape="6.40,501.60 2.90,501.10 0.40,499.60 -1.10,497.10 -1.60,493.60"/>
    </edge>
    <edge id=":A5_2" function="internal">
        <lane id=":A5_2_0" index="0" speed="3.90" length="2.58" shape="4.80,493.60 4.90,494.30 5.20,494.80 5.70,495.10 6.40,495.20"/>
        <lane id=":A5_2_1" index="1" speed="6.08" length="7.74" shape="1.60,493.60 1.90,495.70 2.80,497.20 4.30,498.10 6.40,498.40"/>
    </edge>
    <edge id=":B0_0" function="internal">
        <lane id=":B0_0_0" index="0" speed="6.51" length="9.03" shape="195.20,10.40 194.85,7.95 193.80,6.20 192.05,5.15 189.60,4.80"/>
        <lane id=":B0_0_1" index="1" speed="8.00" length="14.19" shape="198.40,10.40 197.85,6.55 196.20,3.80 193.45,2.15 189.60,1.60"/>
    </edge>
    <edge id=":B0_2" function="internal">
        <lane id=":B0_2_0" index="0" speed="9.26" length="19.35" shape="198.40,10.40 199.15,5.15 201.40,1.40 205.15,-0.85 210.40,-1.60"/>
    </edge>
    <edge id=":B0_3" function="internal">
        <lane id=":B0_3_0" index="0" speed="6.51" length="9.03" shape="210.40,4.80 207.95,5.15 206.20,6.20 205.15,7.95 204.80,10.40"/>
    </edge>
    <edge id=":B0_4" function="internal">
        <lane id=":B0_4_0" index="0" speed="44.00" length="20.80" shape="210.40,4.80 189.60,4.80"/>
        <lane id=":B0_4_1" index="1" speed="44.00" length="20.80" shape="210.40,1.60 189.60,1.60"/>
    </edge>
    <edge id=":B0_6" function="internal">
        <lane id=":B0_6_0" index="0" speed="44.00" length="20.80" shape="189.60,-4.80 210.40,-4.80"/>
        <lane id=":B0_6_1" index="1" speed="44.00" length="20.80" shape="189.60,-1.60 210.40,-1.60"/>
    </edge>
    <edge id=":B0_8" function="internal">
        <lane id=":B0_8_0" index="0" speed="9.26" length="6.96" shape="189.60,-1.60 194.85,-0.85 196.27,-0.00"/>
    </edge>
    <edge id=":B0_9" function="internal">
        <lane id=":B0_9_0" index="0" speed="9.26" length="12.40" shape="196.27,-0.00 198.60,1.40 200.85,5.15 201.60,10.40"/>
    </edge>
    <edge id=":B1_0" function="internal">
        <lane id=":B1_0_0" index="0" speed="6.51" length="9.03" shape="195.20,110.40 194.85,107.95 193.80,106.20 192.05,105.15 189.60,104.80"/>
    </edge>
    <edge id=":B1_1" function="internal">
        <lane id=":B1_1_0" index="0" speed="44.00" length="20.80" shape="195.20,110.40 195.20,89.60"/>
        <lane id=":B1_1_1" index="1" speed="44.00" length="20.80" shape="198.40,110.40 198.40,89.60"/>
    </edge>
    <edge id=":B1_3" function="internal">
        <lane id=":B1_3_0" index="0" speed="9.26" length="6.96" shape="198.40,110.40 199.15,105.15 200.00,103.73"/>
    </edge>
    <edge id=":B1_16" function="internal">
        <lane id=":B1_16_0" index="0" speed="9.26" length="12.40" shape="200.00,103.73 201.40,101.40 205.15,99.15 210.40,98.40"/>
    </edge>
    <edge id=":B1_4" function="internal">
        <lane id=":B1_4_0" index="0" speed="6.51" length="9.03" shape="210.40,104.80 207.95,105.15 206.20,106.20 205.15,107.95 204.80,110.40"/>
    </edge>
    <edge id=":B1_5" function="internal">
        <lane id=":B1_5_0" index="0" speed="44.00" length="20.80" shape="210.40,104.80 189.60,104.80"/>
        <lane id=":B1_5_1" index="1" speed="44.00" length="20.80" shape="210.40,101.60 189.60,101.60"/>
    </edge>
    <edge id=":B1_7" function="internal">
        <lane id=":B1_7_0" index="0" speed="9.26" length="6.96" shape="210.40,101.60 205.15,100.85 203.73,100.00"/>
    </edge>
    <edge id=":B1_17" function="internal">
        <lane id=":B1_17_0" index="0" speed="9.26" length="12.40" shape="203.73,100.00 201.40,98.60 199.15,94.85 198.40,89.60"/>
    </edge>
    <edge id=":B1_8" function="internal">
        <lane id=":B1_8_0" index="0" speed="6.51" length="9.03" shape="204.80,89.60 205.15,92.05 206.20,93.80 207.95,94.85 210.40,95.20"/>
    </edge>
    <edge id=":B1_9" function="internal">
        <lane id=":B1_9_0" index="0" speed="44.00" length="20.80" shape="204.80,89.60 204.80,110.40"/>
        <lane id=":B1_9_1" index="1" speed="44.00" length="20.80" shape="201.60,89.60 201.60,110.40"/>
    </edge>
    <edge id=":B1_11" function="internal">
        <lane id=":B1_11_0" index="0" speed="9.26" length="6.96" shape="201.60,89.60 200.85,94.85 200.00,96.27"/>
    </edge>
    <edge id=":B1_18" function="internal">
        <lane id=":B1_18_0" index="0" speed="9.26" length="12.40" shape="200.00,96.27 198.60,98.60 194.85,100.85 189.60,101.60"/>
    </edge>
    <edge id=":B1_12" function="internal">
        <lane id=":B1_12_0" index="0" speed="6.51" length="9.03" shape="189.60,95.20 192.05,94.85 193.80,93.80 194.85,92.05 195.20,89.60"/>
    </edge>
    <edge id=":B1_13" function="internal">
        <lane id=":B1_13_0" index="0" speed="44.00" length="20.80" shape="189.60,95.20 210.40,95.20"/>
        <lane id=":B1_13_1" index="1" speed="44.00" length="20.80" shape="189.60,98.40 210.40,98.40"/>
    </edge>
    <edge id=":B1_15" function="internal">
        <lane id=":B1_15_0" index="0" speed="9.26" length="6.96" shape="189.60,98.40 194.85,99.15 196.27,100.00"/>
    </edge>
    <edge id=":B1_19" function="internal">
        <lane id=":B1_19_0" index="0" speed="9.26" length="12.40" shape="196.27,100.00 198.60,101.40 200.85,105.15 201.60,110.40"/>
    </edge>
    <edge id=":B2_0" function="internal">
        <lane id=":B2_0_0" index="0" speed="6.51" length="9.03" shape="195.20,210.40 194.85,207.95 193.80,206.20 192.05,205.15 189.60,204.80"/>
    </edge>
    <edge id=":B2_1" function="internal">
        <lane id=":B2_1_0" index="0" speed="44.00" length="20.80" shape="195.20,210.40 195.20,189.60"/>
        <lane id=":B2_1_1" index="1" speed="44.00" length="20.80" shape="198.40,210.40 198.40,189.60"/>
    </edge>
    <edge id=":B2_3" function="internal">
        <lane id=":B2_3_0" index="0" speed="9.26" length="6.96" shape="198.40,210.40 199.15,205.15 200.00,203.73"/>
    </edge>
    <edge id=":B2_16" function="internal">
        <lane id=":B2_16_0" index="0" speed="9.26" length="12.40" shape="200.00,203.73 201.40,201.40 205.15,199.15 210.40,198.40"/>
    </edge>
    <edge id=":B2_4" function="internal">
        <lane id=":B2_4_0" index="0" speed="6.51" length="9.03" shape="210.40,204.80 207.95,205.15 206.20,206.20 205.15,207.95 204.80,210.40"/>
    </edge>
    <edge id=":B2_5" function="internal">
        <lane id=":B2_5_0" index="0" speed="44.00" length="20.80" shape="210.40,204.80 189.60,204.80"/>
        <lane id=":B2_5_1" index="1" speed="44.00" length="20.80" shape="210.40,201.60 189.60,201.60"/>
    </edge>
    <edge id=":B2_7" function="internal">
        <lane id=":B2_7_0" index="0" speed="9.26" length="6.96" shape="210.40,201.60 205.15,200.85 203.73,200.00"/>
    </edge>
    <edge id=":B2_17" function="internal">
        <lane id=":B2_17_0" index="0" speed="9.26" length="12.40" shape="203.73,200.00 201.40,198.60 199.15,194.85 198.40,189.60"/>
    </edge>
    <edge id=":B2_8" function="internal">
        <lane id=":B2_8_0" index="0" speed="6.51" length="9.03" shape="204.80,189.60 205.15,192.05 206.20,193.80 207.95,194.85 210.40,195.20"/>
    </edge>
    <edge id=":B2_9" function="internal">
        <lane id=":B2_9_0" index="0" speed="44.00" length="20.80" shape="204.80,189.60 204.80,210.40"/>
        <lane id=":B2_9_1" index="1" speed="44.00" length="20.80" shape="201.60,189.60 201.60,210.40"/>
    </edge>
    <edge id=":B2_11" function="internal">
        <lane id=":B2_11_0" index="0" speed="9.26" length="6.96" shape="201.60,189.60 200.85,194.85 200.00,196.27"/>
    </edge>
    <edge id=":B2_18" function="internal">
        <lane id=":B2_18_0" index="0" speed="9.26" length="12.40" shape="200.00,196.27 198.60,198.60 194.85,200.85 189.60,201.60"/>
    </edge>
    <edge id=":B2_12" function="internal">
        <lane id=":B2_12_0" index="0" speed="6.51" length="9.03" shape="189.60,195.20 192.05,194.85 193.80,193.80 194.85,192.05 195.20,189.60"/>
    </edge>
    <edge id=":B2_13" function="internal">
        <lane id=":B2_13_0" index="0" speed="44.00" length="20.80" shape="189.60,195.20 210.40,195.20"/>
        <lane id=":B2_13_1" index="1" speed="44.00" length="20.80" shape="189.60,198.40 210.40,198.40"/>
    </edge>
    <edge id=":B2_15" function="internal">
        <lane id=":B2_15_0" index="0" speed="9.26" length="6.96" shape="189.60,198.40 194.85,199.15 196.27,200.00"/>
    </edge>
    <edge id=":B2_19" function="internal">
        <lane id=":B2_19_0" index="0" speed="9.26" length="12.40" shape="196.27,200.00 198.60,201.40 200.85,205.15 201.60,210.40"/>
    </edge>
    <edge id=":B3_0" function="internal">
        <lane id=":B3_0_0" index="0" speed="6.51" length="9.03" shape="195.20,310.40 194.85,307.95 193.80,306.20 192.05,305.15 189.60,304.80"/>
    </edge>
    <edge id=":B3_1" function="internal">
        <lane id=":B3_1_0" index="0" speed="44.00" length="20.80" shape="195.20,310.40 195.20,289.60"/>
        <lane id=":B3_1_1" index="1" speed="44.00" length="20.80" shape="198.40,310.40 198.40,289.60"/>
    </edge>
    <edge id=":B3_3" function="internal">
        <lane id=":B3_3_0" index="0" speed="9.26" length="6.96" shape="198.40,310.40 199.15,305.15 200.00,303.73"/>
    </edge>
    <edge id=":B3_16" function="internal">
        <lane id=":B3_16_0" index="0" speed="9.26" length="12.40" shape="200.00,303.73 201.40,301.40 205.15,299.15 210.40,298.40"/>
    </edge>
    <edge id=":B3_4" function="internal">
        <lane id=":B3_4_0" index="0" speed="6.51" length="9.03" shape="210.40,304.80 207.95,305.15 206.20,306.20 205.15,307.95 204.80,310.40"/>
    </edge>
    <edge id=":B3_5" function="internal">
        <lane id=":B3_5_0" index="0" speed="44.00" length="20.80" shape="210.40,304.80 189.60,304.80"/>
        <lane id=":B3_5_1" index="1" speed="44.00" length="20.80" shape="210.40,301.60 189.60,301.60"/>
    </edge>
    <edge id=":B3_7" function="internal">
        <lane id=":B3_7_0" index="0" speed="9.26" length="6.96" shape="210.40,301.60 205.15,300.85 203.73,300.00"/>
    </edge>
    <edge id=":B3_17" function="internal">
        <lane id=":B3_17_0" index="0" speed="9.26" length="12.40" shape="203.73,300.00 201.40,298.60 199.15,294.85 198.40,289.60"/>
    </edge>
    <edge id=":B3_8" function="internal">
        <lane id=":B3_8_0" index="0" speed="6.51" length="9.03" shape="204.80,289.60 205.15,292.05 206.20,293.80 207.95,294.85 210.40,295.20"/>
    </edge>
    <edge id=":B3_9" function="internal">
        <lane id=":B3_9_0" index="0" speed="44.00" length="20.80" shape="204.80,289.60 204.80,310.40"/>
        <lane id=":B3_9_1" index="1" speed="44.00" length="20.80" shape="201.60,289.60 201.60,310.40"/>
    </edge>
    <edge id=":B3_11" function="internal">
        <lane id=":B3_11_0" index="0" speed="9.26" length="6.96" shape="201.60,289.60 200.85,294.85 200.00,296.27"/>
    </edge>
    <edge id=":B3_18" function="internal">
        <lane id=":B3_18_0" index="0" speed="9.26" length="12.40" shape="200.00,296.27 198.60,298.60 194.85,300.85 189.60,301.60"/>
    </edge>
    <edge id=":B3_12" function="internal">
        <lane id=":B3_12_0" index="0" speed="6.51" length="9.03" shape="189.60,295.20 192.05,294.85 193.80,293.80 194.85,292.05 195.20,289.60"/>
    </edge>
    <edge id=":B3_13" function="internal">
        <lane id=":B3_13_0" index="0" speed="44.00" length="20.80" shape="189.60,295.20 210.40,295.20"/>
        <lane id=":B3_13_1" index="1" speed="44.00" length="20.80" shape="189.60,298.40 210.40,298.40"/>
    </edge>
    <edge id=":B3_15" function="internal">
        <lane id=":B3_15_0" index="0" speed="9.26" length="6.96" shape="189.60,298.40 194.85,299.15 196.27,300.00"/>
    </edge>
    <edge id=":B3_19" function="internal">
        <lane id=":B3_19_0" index="0" speed="9.26" length="12.40" shape="196.27,300.00 198.60,301.40 200.85,305.15 201.60,310.40"/>
    </edge>
    <edge id=":B4_0" function="internal">
        <lane id=":B4_0_0" index="0" speed="6.51" length="9.03" shape="195.20,410.40 194.85,407.95 193.80,406.20 192.05,405.15 189.60,404.80"/>
    </edge>
    <edge id=":B4_1" function="internal">
        <lane id=":B4_1_0" index="0" speed="44.00" length="20.80" shape="195.20,410.40 195.20,389.60"/>
        <lane id=":B4_1_1" index="1" speed="44.00" length="20.80" shape="198.40,410.40 198.40,389.60"/>
    </edge>
    <edge id=":B4_3" function="internal">
        <lane id=":B4_3_0" index="0" speed="9.26" length="6.96" shape="198.40,410.40 199.15,405.15 200.00,403.73"/>
    </edge>
    <edge id=":B4_16" function="internal">
        <lane id=":B4_16_0" index="0" speed="9.26" length="12.40" shape="200.00,403.73 201.40,401.40 205.15,399.15 210.40,398.40"/>
    </edge>
    <edge id=":B4_4" function="internal">
        <lane id=":B4_4_0" index="0" speed="6.51" length="9.03" shape="210.40,404.80 207.95,405.15 206.20,406.20 205.15,407.95 204.80,410.40"/>
    </edge>
    <edge id=":B4_5" function="internal">
        <lane id=":B4_5_0" index="0" speed="44.00" length="20.80" shape="210.40,404.80 189.60,404.80"/>
        <lane id=":B4_5_1" index="1" speed="44.00" length="20.80" shape="210.40,401.60 189.60,401.60"/>
    </edge>
    <edge id=":B4_7" function="internal">
        <lane id=":B4_7_0" index="0" speed="9.26" length="6.96" shape="210.40,401.60 205.15,400.85 203.73,400.00"/>
    </edge>
    <edge id=":B4_17" function="internal">
        <lane id=":B4_17_0" index="0" speed="9.26" length="12.40" shape="203.73,400.00 201.40,398.60 199.15,394.85 198.40,389.60"/>
    </edge>
    <edge id=":B4_8" function="internal">
        <lane id=":B4_8_0" index="0" speed="6.51" length="9.03" shape="204.80,389.60 205.15,392.05 206.20,393.80 207.95,394.85 210.40,395.20"/>
    </edge>
    <edge id=":B4_9" function="internal">
        <lane id=":B4_9_0" index="0" speed="44.00" length="20.80" shape="204.80,389.60 204.80,410.40"/>
        <lane id=":B4_9_1" index="1" speed="44.00" length="20.80" shape="201.60,389.60 201.60,410.40"/>
    </edge>
    <edge id=":B4_11" function="internal">
        <lane id=":B4_11_0" index="0" speed="9.26" length="6.96" shape="201.60,389.60 200.85,394.85 200.00,396.27"/>
    </edge>
    <edge id=":B4_18" function="internal">
        <lane id=":B4_18_0" index="0" speed="9.26" length="12.40" shape="200.00,396.27 198.60,398.60 194.85,400.85 189.60,401.60"/>
    </edge>
    <edge id=":B4_12" function="internal">
        <lane id=":B4_12_0" index="0" speed="6.51" length="9.03" shape="189.60,395.20 192.05,394.85 193.80,393.80 194.85,392.05 195.20,389.60"/>
    </edge>
    <edge id=":B4_13" function="internal">
        <lane id=":B4_13_0" index="0" speed="44.00" length="20.80" shape="189.60,395.20 210.40,395.20"/>
        <lane id=":B4_13_1" index="1" speed="44.00" length="20.80" shape="189.60,398.40 210.40,398.40"/>
    </edge>
    <edge id=":B4_15" function="internal">
        <lane id=":B4_15_0" index="0" speed="9.26" length="6.96" shape="189.60,398.40 194.85,399.15 196.27,400.00"/>
    </edge>
    <edge id=":B4_19" function="internal">
        <lane id=":B4_19_0" index="0" speed="9.26" length="12.40" shape="196.27,400.00 198.60,401.40 200.85,405.15 201.60,410.40"/>
    </edge>
    <edge id=":B5_0" function="internal">
        <lane id=":B5_0_0" index="0" speed="44.00" length="20.80" shape="210.40,504.80 189.60,504.80"/>
        <lane id=":B5_0_1" index="1" speed="44.00" length="20.80" shape="210.40,501.60 189.60,501.60"/>
    </edge>
    <edge id=":B5_2" function="internal">
        <lane id=":B5_2_0" index="0" speed="9.26" length="6.96" shape="210.40,501.60 205.15,500.85 203.73,500.00"/>
    </edge>
    <edge id=":B5_9" function="internal">
        <lane id=":B5_9_0" index="0" speed="9.26" length="12.40" shape="203.73,500.00 201.40,498.60 199.15,494.85 198.40,489.60"/>
    </edge>
    <edge id=":B5_3" function="internal">
        <lane id=":B5_3_0" index="0" speed="6.51" length="9.03" shape="204.80,489.60 205.15,492.05 206.20,493.80 207.95,494.85 210.40,495.20"/>
        <lane id=":B5_3_1" index="1" speed="8.00" length="14.19" shape="201.60,489.60 202.15,493.45 203.80,496.20 206.55,497.85 210.40,498.40"/>
    </edge>
    <edge id=":B5_5" function="internal">
        <lane id=":B5_5_0" index="0" speed="9.26" length="19.35" shape="201.60,489.60 200.85,494.85 198.60,498.60 194.85,500.85 189.60,501.60"/>
    </edge>
    <edge id=":B5_6" function="internal">
        <lane id=":B5_6_0" index="0" speed="6.51" length="9.03" shape="189.60,495.20 192.05,494.85 193.80,493.80 194.85,492.05 195.20,489.60"/>
    </edge>
    <edge id=":B5_7" function="internal">
        <lane id=":B5_7_0" index="0" speed="44.00" length="20.80" shape="189.60,495.20 210.40,495.20"/>
        <lane id=":B5_7_1" index="1" speed="44.00" length="20.80" shape="189.60,498.40 210.40,498.40"/>
    </edge>
    <edge id=":C0_0" function="internal">
        <lane id=":C0_0_0" index="0" speed="3.90" length="2.58" shape="395.20,6.40 395.10,5.70 394.80,5.20 394.30,4.90 393.60,4.80"/>
        <lane id=":C0_0_1" index="1" speed="6.08" length="7.74" shape="398.40,6.40 398.10,4.30 397.20,2.80 395.70,1.90 393.60,1.60"/>
    </edge>
    <edge id=":C0_2" function="internal">
        <lane id=":C0_2_0" index="0" speed="8.96" length="18.06" shape="393.60,-4.80 398.50,-4.10 402.00,-2.00 404.10,1.50 404.80,6.40"/>
        <lane id=":C0_2_1" index="1" speed="7.66" length="12.90" shape="393.60,-1.60 397.10,-1.10 399.60,0.40 401.10,2.90 401.60,6.40"/>
    </edge>
    <edge id=":C1_0" function="internal">
        <lane id=":C1_0_0" index="0" speed="6.51" length="9.03" shape="395.20,110.40 394.85,107.95 393.80,106.20 392.05,105.15 389.60,104.80"/>
    </edge>
    <edge id=":C1_1" function="internal">
        <lane id=":C1_1_0" index="0" speed="44.00" length="20.80" shape="395.20,110.40 395.20,89.60"/>
        <lane id=":C1_1_1" index="1" speed="44.00" length="20.80" shape="398.40,110.40 398.40,89.60"/>
    </edge>
    <edge id=":C1_3" function="internal">
        <lane id=":C1_3_0" index="0" speed="44.00" length="20.80" shape="404.80,89.60 404.80,110.40"/>
        <lane id=":C1_3_1" index="1" speed="44.00" length="20.80" shape="401.60,89.60 401.60,110.40"/>
    </edge>
    <edge id=":C1_5" function="internal">
        <lane id=":C1_5_0" index="0" speed="9.26" length="6.96" shape="401.60,89.60 400.85,94.85 400.00,96.27"/>
    </edge>
    <edge id=":C1_9" function="internal">
        <lane id=":C1_9_0" index="0" speed="9.26" length="12.40" shape="400.00,96.27 398.60,98.60 394.85,100.85 389.60,101.60"/>
    </edge>
    <edge id=":C1_6" function="internal">
        <lane id=":C1_6_0" index="0" speed="6.51" length="9.03" shape="389.60,95.20 392.05,94.85 393.80,93.80 394.85,92.05 395.20,89.60"/>
        <lane id=":C1_6_1" index="1" speed="8.00" length="14.19" shape="389.60,98.40 393.45,97.85 396.20,96.20 397.85,93.45 398.40,89.60"/>
    </edge>
    <edge id=":C1_8" function="internal">
        <lane id=":C1_8_0" index="0" speed="9.26" length="19.35" shape="389.60,98.40 394.85,99.15 398.60,101.40 400.85,105.15 401.60,110.40"/>
    </edge>
    <edge id=":C2_0" function="internal">
        <lane id=":C2_0_0" index="0" speed="6.51" length="9.03" shape="395.20,210.40 394.85,207.95 393.80,206.20 392.05,205.15 389.60,204.80"/>
    </edge>
    <edge id=":C2_1" function="internal">
        <lane id=":C2_1_0" index="0" speed="44.00" length="20.80" shape="395.20,210.40 395.20,189.60"/>
        <lane id=":C2_1_1" index="1" speed="44.00" length="20.80" shape="398.40,210.40 398.40,189.60"/>
    </edge>
    <edge id=":C2_3" function="internal">
        <lane id=":C2_3_0" index="0" speed="44.00" length="20.80" shape="404.80,189.60 404.80,210.40"/>
        <lane id=":C2_3_1" index="1" speed="44.00" length="20.80" shape="401.60,189.60 401.60,210.40"/>
    </edge>
    <edge id=":C2_5" function="internal">
        <lane id=":C2_5_0" index="0" speed="9.26" length="6.96" shape="401.60,189.60 400.85,194.85 400.00,196.27"/>
    </edge>
    <edge id=":C2_9" function="internal">
        <lane id=":C2_9_0" index="0" speed="9.26" length="12.40" shape="400.00,196.27 398.60,198.60 394.85,200.85 389.60,201.60"/>
    </edge>
    <edge id=":C2_6" function="internal">
        <lane id=":C2_6_0" index="0" speed="6.51" length="9.03" shape="389.60,195.20 392.05,194.85 393.80,193.80 394.85,192.05 395.20,189.60"/>
        <lane id=":C2_6_1" index="1" speed="8.00" length="14.19" shape="389.60,198.40 393.45,197.85 396.20,196.20 397.85,193.45 398.40,189.60"/>
    </edge>
    <edge id=":C2_8" function="internal">
        <lane id=":C2_8_0" index="0" speed="9.26" length="19.35" shape="389.60,198.40 394.85,199.15 398.60,201.40 400.85,205.15 401.60,210.40"/>
    </edge>
    <edge id=":C3_0" function="internal">
        <lane id=":C3_0_0" index="0" speed="6.51" length="9.03" shape="395.20,310.40 394.85,307.95 393.80,306.20 392.05,305.15 389.60,304.80"/>
    </edge>
    <edge id=":C3_1" function="internal">
        <lane id=":C3_1_0" index="0" speed="44.00" length="20.80" shape="395.20,310.40 395.20,289.60"/>
        <lane id=":C3_1_1" index="1" speed="44.00" length="20.80" shape="398.40,310.40 398.40,289.60"/>
    </edge>
    <edge id=":C3_3" function="internal">
        <lane id=":C3_3_0" index="0" speed="44.00" length="20.80" shape="404.80,289.60 404.80,310.40"/>
        <lane id=":C3_3_1" index="1" speed="44.00" length="20.80" shape="401.60,289.60 401.60,310.40"/>
    </edge>
    <edge id=":C3_5" function="internal">
        <lane id=":C3_5_0" index="0" speed="9.26" length="6.96" shape="401.60,289.60 400.85,294.85 400.00,296.27"/>
    </edge>
    <edge id=":C3_9" function="internal">
        <lane id=":C3_9_0" index="0" speed="9.26" length="12.40" shape="400.00,296.27 398.60,298.60 394.85,300.85 389.60,301.60"/>
    </edge>
    <edge id=":C3_6" function="internal">