<additional xmlns:xsi="http://www.w3.org/2001/XMLSchema-instance" xsi:noNamespaceSchemaLocation="http://sumo.dlr.de/xsd/additional_file.xsd">
    <laneAreaDetector file="e2output.xml" freq="60" speedThreshold="100" friendlyPos="x" id="e2det_A0A1_0" lane="A0A1_0" length="83.10000000000001" pos="0"/>
    <laneAreaDetector file="e2output.xml" freq="60" speedThreshold="100" friendlyPos="x" id="e2det_A0A1_1" lane="A0A1_1" length="83.10000000000001" pos="0"/>
    <laneAreaDetector file="e2output.xml" freq="60" speedThreshold="100" friendlyPos="x" id="e2det_A2A1_0" lane="A2A1_0" length="79.10000000000001" pos="0"/>
    <laneAreaDetector file="e2output.xml" freq="60" speedThreshold="100" friendlyPos="x" id="e2det_A2A1_1" lane="A2A1_1" length="79.10000000000001" pos="0"/>
    <laneAreaDetector file="e2output.xml" freq="60" speedThreshold="100" friendlyPos="x" id="e2det_B1A1_0" lane="B1A1_0" length="179.1" pos="0"/>
    <laneAreaDetector file="e2output.xml" freq="60" speedThreshold="100" friendlyPos="x" id="e2det_B1A1_1" lane="B1A1_1" length="179.1" pos="0"/>
    <laneAreaDetector file="e2output.xml" freq="60" speedThreshold="100" friendlyPos="x" id="e2det_A0B0_0" lane="A0B0_0" length="183.1" pos="0"/>
    <laneAreaDetector file="e2output.xml" freq="60" speedThreshold="100" friendlyPos="x" id="e2det_A0B0_1" lane="A0B0_1" length="183.1" pos="0"/>
    <laneAreaDetector file="e2output.xml" freq="60" speedThreshold="100" friendlyPos="x" id="e2det_B1B0_0" lane="B1B0_0" length="79.10000000000001" pos="0"/>
    <laneAreaDetector file="e2output.xml" freq="60" speedThreshold="100" friendlyPos="x" id="e2det_B1B0_1" lane="B1B0_1" length="79.10000000000001" pos="0"/>
    <laneAreaDetector file="e2output.xml" freq="60" speedThreshold="100" friendlyPos="x" id="e2det_C0B0_0" lane="C0B0_0" length="183.1" pos="0"/>
    <laneAreaDetector file="e2output.xml" freq="60" speedThreshold="100" friendlyPos="x" id="e2det_C0B0_1" lane="C0B0_1" length="183.1" pos="0"/>
    <laneAreaDetector file="e2output.xml" freq="60" speedThreshold="100" friendlyPos="x" id="e2det_A1A0_0" lane="A1A0_0" length="83.10000000000001" pos="0"/>
    <laneAreaDetector file="e2output.xml" freq="60" speedThreshold="100" friendlyPos="x" id="e2det_A1A0_1" lane="A1A0_1" length="83.10000000000001" pos="0"/>
    <laneAreaDetector file="e2output.xml" freq="60" speedThreshold="100" friendlyPos="x" id="e2det_B0A0_0" lane="B0A0_0" length="183.1" pos="0"/>
    <laneAreaDetector file="e2output.xml" freq="60" speedThreshold="100" friendlyPos="x" id="e2det_B0A0_1" lane="B0A0_1" length="183.1" pos="0"/>
    <laneAreaDetector file="e2output.xml" freq="60" speedThreshold="100" friendlyPos="x" id="e2det_A1A2_0" lane="A1A2_0" length="79.10000000000001" pos="0"/>
    <laneAreaDetector file="e2output.xml" freq="60" speedThreshold="100" friendlyPos="x" id="e2det_A1A2_1" lane="A1A2_1" length="79.10000000000001" pos="0"/>
    <laneAreaDetector file="e2output.xml" freq="60" speedThreshold="100" friendlyPos="x" id="e2det_A3A2_0" lane="A3A2_0" length="79.10000000000001" pos="0"/>
    <laneAreaDetector file="e2output.xml" freq="60" speedThreshold="100" friendlyPos="x" id="e2det_A3A2_1" lane="A3A2_1" length="79.10000000000001" pos="0"/>
    <laneAreaDetector file="e2output.xml" freq="60" speedThreshold="100" friendlyPos="x" id="e2det_B2A2_0" lane="B2A2_0" length="179.1" pos="0"/>
    <laneAreaDetector file="e2output.xml" freq="60" speedThreshold="100" friendlyPos="x" id="e2det_B2A2_1" lane="B2A2_1" length="179.1" pos="0"/>
    <laneAreaDetector file="e2output.xml" freq="60" speedThreshold="100" friendlyPos="x" id="e2det_A1B1_0" lane="A1B1_0" length="179.1" pos="0"/>
    <laneAreaDetector file="e2output.xml" freq="60" speedThreshold="100" friendlyPos="x" id="e2det_A1B1_1" lane="A1B1_1" length="179.1" pos="0"/>
    <laneAreaDetector file="e2output.xml" freq="60" speedThreshold="100" friendlyPos="x" id="e2det_B0B1_0" lane="B0B1_0" length="79.10000000000001" pos="0"/>
    <laneAreaDetector file="e2output.xml" freq="60" speedThreshold="100" friendlyPos="x" id="e2det_B0B1_1" lane="B0B1_1" length="79.10000000000001" pos="0"/>
    <laneAreaDetector file="e2output.xml" freq="60" speedThreshold="100" friendlyPos="x" id="e2det_B2B1_0" lane="B2B1_0" length="79.10000000000001" pos="0"/>
    <laneAreaDetector file="e2output.xml" freq="60" speedThreshold="100" friendlyPos="x" id="e2det_B2B1_1" lane="B2B1_1" length="79.10000000000001" pos="0"/>
    <laneAreaDetector file="e2output.xml" freq="60" speedThreshold="100" friendlyPos="x" id="e2det_C1B1_0" lane="C1B1_0" length="179.1" pos="0"/>
    <laneAreaDetector file="e2output.xml" freq="60" speedThreshold="100" friendlyPos="x" id="e2det_C1B1_1" lane="C1B1_1" length="179.1" pos="0"/>
    <laneAreaDetector file="e2output.xml" freq="60" speedThreshold="100" friendlyPos="x" id="e2det_A2A3_0" lane="A2A3_0" length="79.10000000000001" pos="0"/>
    <laneAreaDetector file="e2output.xml" freq="60" speedThreshold="100" friendlyPos="x" id="e2det_A2A3_1" lane="A2A3_1" length="79.10000000000001" pos="0"/>
    <laneAreaDetector file="e2output.xml" freq="60" speedThreshold="100" friendlyPos="x" id="e2det_A4A3_0" lane="A4A3_0" length="79.10000000000001" pos="0"/>
    <laneAreaDetector file="e2output.xml" freq="60" speedThreshold="100" friendlyPos="x" id="e2det_A4A3_1" lane="A4A3_1" length="79.10000000000001" pos="0"/>
    <laneAreaDetector file="e2output.xml" freq="60" speedThreshold="100" friendlyPos="x" id="e2det_B3A3_0" lane="B3A3_0" length="179.1" pos="0"/>
    <laneAreaDetector file="e2output.xml" freq="60" speedThreshold="100" friendlyPos="x" id="e2det_B3A3_1" lane="B3A3_1" length="179.1" pos="0"/>
    <laneAreaDetector file="e2output.xml" freq="60" speedThreshold="100" friendlyPos="x" id="e2det_A2B2_0" lane="A2B2_0" length="179.1" pos="0"/>
    <laneAreaDetector file="e2output.xml" freq="60" speedThreshold="100" friendlyPos="x" id="e2det_A2B2_1" lane="A2B2_1" length="179.1" pos="0"/>
    <laneAreaDetector file="e2output.xml" freq="60" speedThreshold="100" friendlyPos="x" id="e2det_B1B2_0" lane="B1B2_0" length="79.10000000000001" pos="0"/>
    <laneAreaDetector file="e2output.xml" freq="60" speedThreshold="100" friendlyPos="x" id="e2det_B1B2_1" lane="B1B2_1" length="79.10000000000001" pos="0"/>
    <laneAreaDetector file="e2output.xml" freq="60" speedThreshold="100" friendlyPos="x" id="e2det_B3B2_0" lane="B3B2_0" length="79.10000000000001" pos="0"/>
    <laneAreaDetector file="e2output.xml" freq="60" speedThreshold="100" friendlyPos="x" id="e2det_B3B2_1" lane="B3B2_1" length="79.10000000000001" pos="0"/>
    <laneAreaDetector file="e2output.xml" freq="60" speedThreshold="100" friendlyPos="x" id="e2det_C2B2_0" lane="C2B2_0" length="179.1" pos="0"/>
    <laneAreaDetector file="e2output.xml" freq="60" speedThreshold="100" friendlyPos="x" id="e2det_C2B2_1" lane="C2B2_1" length="179.1" pos="0"/>
    <laneAreaDetector file="e2output.xml" freq="60" speedThreshold="100" friendlyPos="x" id="e2det_A3A4_0" lane="A3A4_0" length="79.10000000000001" pos="0"/>
    <laneAreaDetector file="e2output.xml" freq="60" speedThreshold="100" friendlyPos="x" id="e2det_A3A4_1" lane="A3A4_1" length="79.10000000000001" pos="0"/>
    <laneAreaDetector file="e2output.xml" freq="60" speedThreshold="100" friendlyPos="x" id="e2det_A5A4_0" lane="A5A4_0" length="83.10000000000001" pos="0"/>
    <laneAreaDetector file="e2output.xml" freq="60" speedThreshold="100" friendlyPos="x" id="e2det_A5A4_1" lane="A5A4_1" length="83.10000000000001" pos="0"/>
    <laneAreaDetector file="e2output.xml" freq="60" speedThreshold="100" friendlyPos="x" id="e2det_B4A4_0" lane="B4A4_0" length="179.1" pos="0"/>
    <laneAreaDetector file="e2output.xml" freq="60" speedThreshold="100" friendlyPos="x" id="e2det_B4A4_1" lane="B4A4_1" length="179.1" pos="0"/>
    <laneAreaDetector file="e2output.xml" freq="60" speedThreshold="100" friendlyPos="x" id="e2det_A3B3_0" lane="A3B3_0" length="179.1" pos="0"/>
    <laneAreaDetector file="e2output.xml" freq="60" speedThreshold="100" friendlyPos="x" id="e2det_A3B3_1" lane="A3B3_1" length="179.1" pos="0"/>
    <laneAreaDetector file="e2output.xml" freq="60" speedThreshold="100" friendlyPos="x" id="e2det_B2B3_0" lane="B2B3_0" length="79.10000000000001" pos="0"/>
    <laneAreaDetector file="e2output.xml" freq="60" speedThreshold="100" friendlyPos="x" id="e2det_B2B3_1" lane="B2B3_1" length="79.10000000000001" pos="0"/>
    <laneAreaDetector file="e2output.xml" freq="60" speedThreshold="100" friendlyPos="x" id="e2det_B4B3_0" lane="B4B3_0" length="79.10000000000001" pos="0"/>
    <laneAreaDetector file="e2output.xml" freq="60" speedThreshold="100" friendlyPos="x" id="e2det_B4B3_1" lane="B4B3_1" length="79.10000000000001" pos="0"/>
    <laneAreaDetector file="e2output.xml" freq="60" speedThreshold="100" friendlyPos="x" id="e2det_C3B3_0" lane="C3B3_0" length="179.1" pos="0"/>
    <laneAreaDetector file="e2output.xml" freq="60" speedThreshold="100" friendlyPos="x" id="e2det_C3B3_1" lane="C3B3_1" length="179.1" pos="0"/>
    <laneAreaDetector file="e2output.xml" freq="60" speedThreshold="100" friendlyPos="x" id="e2det_A4A5_0" lane="A4A5_0" length="83.10000000000001" pos="0"/>
    <laneAreaDetector file="e2output.xml" freq="60" speedThreshold="100" friendlyPos="x" id="e2det_A4A5_1" lane="A4A5_1" length="83.10000000000001" pos="0"/>
    <laneAreaDetector file="e2output.xml" freq="60" speedThreshold="100" friendlyPos="x" id="e2det_B5A5_0" lane="B5A5_0" length="183.1" pos="0"/>
    <laneAreaDetector file="e2output.xml" freq="60" speedThreshold="100" friendlyPos="x" id="e2det_B5A5_1" lane="B5A5_1" length="183.1" pos="0"/>
    <laneAreaDetector file="e2output.xml" freq="60" speedThreshold="100" friendlyPos="x" id="e2det_A4B4_0" lane="A4B4_0" length="179.1" pos="0"/>
    <laneAreaDetector file="e2output.xml" freq="60" speedThreshold="100" friendlyPos="x" id="e2det_A4B4_1" lane="A4B4_1" length="179.1" pos="0"/>
    <laneAreaDetector file="e2output.xml" freq="60" speedThreshold="100" friendlyPos="x" id="e2det_B3B4_0" lane="B3B4_0" length="79.10000000000001" pos="0"/>
    <laneAreaDetector file="e2output.xml" freq="60" speedThreshold="100" friendlyPos="x" id="e2det_B3B4_1" lane="B3B4_1" length="79.10000000000001" pos="0"/>
    <laneAreaDetector file="e2output.xml" freq="60" speedThreshold="100" friendlyPos="x" id="e2det_B5B4_0" lane="B5B4_0" length="79.10000000000001" pos="0"/>
    <laneAreaDetector file="e2output.xml" freq="60" speedThreshold="100" friendlyPos="x" id="e2det_B5B4_1" lane="B5B4_1" length="79.10000000000001" pos="0"/>
    <laneAreaDetector file="e2output.xml" freq="60" speedThreshold="100" friendlyPos="x" id="e2det_C4B4_0" lane="C4B4_0" length="179.1" pos="0"/>
    <laneAreaDetector file="e2output.xml" freq="60" speedThreshold="100" friendlyPos="x" id="e2det_C4B4_1" lane="C4B4_1" length="179.1" pos="0"/>
    <laneAreaDetector file="e2output.xml" freq="60" speedThreshold="100" friendlyPos="x" id="e2det_A5B5_0" lane="A5B5_0" length="183.1" pos="0"/>
    <laneAreaDetector file="e2output.xml" freq="60" speedThreshold="100" friendlyPos="x" id="e2det_A5B5_1" lane="A5B5_1" length="183.1" pos="0"/>
    <laneAreaDetector file="e2output.xml" freq="60" speedThreshold="100" friendlyPos="x" id="e2det_B4B5_0" lane="B4B5_0" length="79.10000000000001" pos="0"/>
    <laneAreaDetector file="e2output.xml" freq="60" speedThreshold="100" friendlyPos="x" id="e2det_B4B5_1" lane="B4B5_1" length="79.10000000000001" pos="0"/>
    <laneAreaDetector file="e2output.xml" freq="60" speedThreshold="100" friendlyPos="x" id="e2det_C5B5_0" lane="C5B5_0" length="183.1" pos="0"/>
    <laneAreaDetector file="e2output.xml" freq="60" speedThreshold="100" friendlyPos="x" id="e2det_C5B5_1" lane="C5B5_1" length="183.1" pos="0"/>
    <laneAreaDetector file="e2output.xml" freq="60" speedThreshold="100" friendlyPos="x" id="e2det_B0C0_0" lane="B0C0_0" length="183.1" pos="0"/>
    <laneAreaDetector file="e2output.xml" freq="60" speedThreshold="100" friendlyPos="x" id="e2det_B0C0_1" lane="B0C0_1" length="183.1" pos="0"/>
    <laneAreaDetector file="e2output.xml" freq="60" speedThreshold="100" friendlyPos="x" id="e2det_C1C0_0" lane="C1C0_0" length="83.10000000000001" pos="0"/>
    <laneAreaDetector file="e2output.xml" freq="60" speedThreshold="100" friendlyPos="x" id="e2det_C1C0_1" lane="C1C0_1" length="83.10000000000001" pos="0"/>
    <laneAreaDetector file="e2output.xml" freq="60" speedThreshold="100" friendlyPos="x" id="e2det_B1C1_0" lane="B1C1_0" length="179.1" pos="0"/>
    <laneAreaDetector file="e2output.xml" freq="60" speedThreshold="100" friendlyPos="x" id="e2det_B1C1_1" lane="B1C1_1" length="179.1" pos="0"/>
    <laneAreaDetector file="e2output.xml" freq="60" speedThreshold="100" friendlyPos="x" id="e2det_C0C1_0" lane="C0C1_0" length="83.10000000000001" pos="0"/>
    <laneAreaDetector file="e2output.xml" freq="60" speedThreshold="100" friendlyPos="x" id="e2det_C0C1_1" lane="C0C1_1" length="83.10000000000001" pos="0"/>
    <laneAreaDetector file="e2output.xml" freq="60" speedThreshold="100" friendlyPos="x" id="e2det_C2C1_0" lane="C2C1_0" length="79.10000000000001" pos="0"/>
    <laneAreaDetector file="e2output.xml" freq="60" speedThreshold="100" friendlyPos="x" id="e2det_C2C1_1" lane="C2C1_1" length="79.10000000000001" pos="0"/>
    <laneAreaDetector file="e2output.xml" freq="60" speedThreshold="100" friendlyPos="x" id="e2det_B2C2_0" lane="B2C2_0" length="179.1" pos="0"/>
    <laneAreaDetector file="e2output.xml" freq="60" speedThreshold="100" friendlyPos="x" id="e2det_B2C2_1" lane="B2C2_1" length="179.1" pos="0"/>
    <laneAreaDetector file="e2output.xml" freq="60" speedThreshold="100" friendlyPos="x" id="e2det_C1C2_0" lane="C1C2_0" length="79.10000000000001" pos="0"/>
    <laneAreaDetector file="e2output.xml" freq="60" speedThreshold="100" friendlyPos="x" id="e2det_C1C2_1" lane="C1C2_1" length="79.10000000000001" pos="0"/>
    <laneAreaDetector file="e2output.xml" freq="60" speedThreshold="100" friendlyPos="x" id="e2det_C3C2_0" lane="C3C2_0" length="79.10000000000001" pos="0"/>
    <laneAreaDetector file="e2output.xml" freq="60" speedThreshold="100" friendlyPos="x" id="e2det_C3C2_1" lane="C3C2_1" length="79.10000000000001" pos="0"/>
    <laneAreaDetector file="e2output.xml" freq="60" speedThreshold="100" friendlyPos="x" id="e2det_B3C3_0" lane="B3C3_0" length="179.1" pos="0"/>
    <laneAreaDetector file="e2output.xml" freq="60" speedThreshold="100" friendlyPos="x" id="e2det_B3C3_1" lane="B3C3_1" length="179.1" pos="0"/>
    <laneAreaDetector file="e2output.xml" freq="60" speedThreshold="100" friendlyPos="x" id="e2det_C2C3_0" lane="C2C3_0" length="79.10000000000001" pos="0"/>
    <laneAreaDetector file="e2output.xml" freq="60" speedThreshold="100" friendlyPos="x" id="e2det_C2C3_1" lane="C2C3_1" length="79.10000000000001" pos="0"/>
    <laneAreaDetector file="e2output.xml" freq="60" speedThreshold="100" friendlyPos="x" id="e2det_C4C3_0" lane="C4C3_0" length="79.10000000000001" pos="0"/>
    <laneAreaDetector file="e2output.xml" freq="60" speedThreshold="100" friendlyPos="x" id="e2det_C4C3_1" lane="C4C3_1" length="79.10000000000001" pos="0"/>
    <laneAreaDetector file="e2output.xml" freq="60" speedThreshold="100" friendlyPos="x" id="e2det_B4C4_0" lane="B4C4_0" length="179.1" pos="0"/>
    <laneAreaDetector file="e2output.xml" freq="60" speedThreshold="100" friendlyPos="x" id="e2det_B4C4_1" lane="B4C4_1" length="179.1" pos="0"/>
    <laneAreaDetector file="e2output.xml" freq="60" speedThreshold="100" friendlyPos="x" id="e2det_C3C4_0" lane="C3C4_0" length="79.10000000000001" pos="0"/>
    <laneAreaDetector file="e2output.xml" freq="60" speedThreshold="100" friendlyPos="x" id="e2det_C3C4_1" lane="C3C4_1" length="79.10000000000001" pos="0"/>
    <laneAreaDetector file="e2output.xml" freq="60" speedThreshold="100" friendlyPos="x" id="e2det_C5C4_0" lane="C5C4_0" length="83.10000000000001" pos="0"/>
    <laneAreaDetector file="e2output.xml" freq="60" speedThreshold="100" friendlyPos="x" id="e2det_C5C4_1" lane="C5C4_1" length="83.10000000000001" pos="0"/>
    <laneAreaDetector file="e2output.xml" freq="60" speedThreshold="100" friendlyPos="x" id="e2det_B5C5_0" lane="B5C5_0" length="183.1" pos="0"/>
    <laneAreaDetector file="e2output.xml" freq="60" speedThreshold="100" friendlyPos="x" id="e2det_B5C5_1" lane="B5C5_1" length="183.1" pos="0"/>
    <laneAreaDetector file="e2output.xml" freq="60" speedThreshold="100" friendlyPos="x" id="e2det_C4C5_0" lane="C4C5_0" length="83.10000000000001" pos="0"/>
    <laneAreaDetector file="e2output.xml" freq="60" speedThreshold="100" friendlyPos="x" id="e2det_C4C5_1" lane="C4C5_1" length="83.10000000000001" pos="0"/>
</additional>
