<routes>
   <vType id="car"
   			vClass="passenger" length="5" accel="3.5" decel="2.2"
   			sigma="1.0" maxSpeed="10"/>

    <route id="route_SN" edges="SR NL" />
    <route id="route_WE" edges="WR EL" />

    <vehicle id="0" type="car" route="route_WE" depart="0"/>
    <vehicle id="1" type="car" route="route_WE" depart="1"/>
    <vehicle id="2" type="car" route="route_WE" depart="2"/>
    <vehicle id="3" type="car" route="route_WE" depart="3"/>

    <vehicle id="4" type="car" route="route_SN" depart="4"/>
    <vehicle id="5" type="car" route="route_SN" depart="5"/>
    <vehicle id="6" type="car" route="route_SN" depart="6"/>
    <vehicle id="7" type="car" route="route_SN" depart="7"/>

    <vehicle id="8" type="car" route="route_WE" depart="200"/>

</routes>