<?xml version="1.0" encoding="UTF-8"?>

<!-- generated on 2021-06-08 23:06:06 by Eclipse SUMO duarouter Version 1.9.2
<configuration xmlns:xsi="http://www.w3.org/2001/XMLSchema-instance" xsi:noNamespaceSchemaLocation="http://sumo.dlr.de/xsd/duarouterConfiguration.xsd">

    <input>
        <net-file value="lights.net.xml"/>
        <route-files value="trips.trips.xml"/>
    </input>

    <output>
        <output-file value="temp.rou.xml"/>
        <alternatives-output value="temp.rou.alt.xml"/>
    </output>

    <time>
        <begin value="0"/>
        <end value="2000"/>
    </time>

    <report>
        <no-warnings value="true"/>
        <ignore-errors value="true"/>
        <no-step-log value="true"/>
    </report>

</configuration>
-->

<routes xmlns:xsi="http://www.w3.org/2001/XMLSchema-instance" xsi:noNamespaceSchemaLocation="http://sumo.dlr.de/xsd/routes_file.xsd">
    <vehicle id="0" depart="0.00">
        <route edges="SR EL"/>
    </vehicle>
    <vehicle id="3" depart="3.00">
        <route edges="WR EL"/>
    </vehicle>
    <vehicle id="9" depart="9.00">
        <route edges="WR EL"/>
    </vehicle>
    <vehicle id="10" depart="10.00">
        <route edges="WR SL"/>
    </vehicle>
    <vehicle id="14" depart="14.00">
        <route edges="WR SL"/>
    </vehicle>
    <vehicle id="15" depart="15.00">
        <route edges="WR SL"/>
    </vehicle>
    <vehicle id="17" depart="17.00">
        <route edges="NR SL"/>
    </vehicle>
    <vehicle id="18" depart="18.00">
        <route edges="WR SL"/>
    </vehicle>
    <vehicle id="19" depart="19.00">
        <route edges="WR SL"/>
    </vehicle>
    <vehicle id="20" depart="20.00">
        <route edges="SR EL"/>
    </vehicle>
    <vehicle id="21" depart="21.00">
        <route edges="ER NL"/>
    </vehicle>
    <vehicle id="23" depart="23.00">
        <route edges="ER NL"/>
    </vehicle>
    <vehicle id="24" depart="24.00">
        <route edges="SR NL"/>
    </vehicle>
    <vehicle id="26" depart="26.00">
        <route edges="NR WL"/>
    </vehicle>
    <vehicle id="29" depart="29.00">
        <route edges="ER NL"/>
    </vehicle>
    <vehicle id="30" depart="30.00">
        <route edges="WR SL"/>
    </vehicle>
    <vehicle id="35" depart="35.00">
        <route edges="ER WL"/>
    </vehicle>
    <vehicle id="37" depart="37.00">
        <route edges="SR NL"/>
    </vehicle>
    <vehicle id="40" depart="40.00">
        <route edges="SR NL"/>
    </vehicle>
    <vehicle id="43" depart="43.00">
        <route edges="WR SL"/>
    </vehicle>
    <vehicle id="47" depart="47.00">
        <route edges="ER NL"/>
    </vehicle>
    <vehicle id="48" depart="48.00">
        <route edges="WR SL"/>
    </vehicle>
    <vehicle id="52" depart="52.00">
        <route edges="NR SL"/>
    </vehicle>
    <vehicle id="53" depart="53.00">
        <route edges="ER NL"/>
    </vehicle>
    <vehicle id="54" depart="54.00">
        <route edges="NR WL"/>
    </vehicle>
    <vehicle id="56" depart="56.00">
        <route edges="SR EL"/>
    </vehicle>
    <vehicle id="58" depart="58.00">
        <route edges="NR SL"/>
    </vehicle>
    <vehicle id="59" depart="59.00">
        <route edges="SR EL"/>
    </vehicle>
    <vehicle id="60" depart="60.00">
        <route edges="WR SL"/>
    </vehicle>
    <vehicle id="61" depart="61.00">
        <route edges="WR SL"/>
    </vehicle>
    <vehicle id="62" depart="62.00">
        <route edges="ER NL"/>
    </vehicle>
    <vehicle id="63" depart="63.00">
        <route edges="ER WL"/>
    </vehicle>
    <vehicle id="67" depart="67.00">
        <route edges="ER NL"/>
    </vehicle>
    <vehicle id="68" depart="68.00">
        <route edges="ER WL"/>
    </vehicle>
    <vehicle id="69" depart="69.00">
        <route edges="WR EL"/>
    </vehicle>
    <vehicle id="70" depart="70.00">
        <route edges="NR SL"/>
    </vehicle>
    <vehicle id="71" depart="71.00">
        <route edges="NR WL"/>
    </vehicle>
    <vehicle id="74" depart="74.00">
        <route edges="ER NL"/>
    </vehicle>
    <vehicle id="75" depart="75.00">
        <route edges="WR SL"/>
    </vehicle>
    <vehicle id="76" depart="76.00">
        <route edges="NR SL"/>
    </vehicle>
    <vehicle id="78" depart="78.00">
        <route edges="NR SL"/>
    </vehicle>
    <vehicle id="81" depart="81.00">
        <route edges="ER WL"/>
    </vehicle>
    <vehicle id="82" depart="82.00">
        <route edges="WR EL"/>
    </vehicle>
    <vehicle id="85" depart="85.00">
        <route edges="WR SL"/>
    </vehicle>
    <vehicle id="86" depart="86.00">
        <route edges="NR WL"/>
    </vehicle>
    <vehicle id="87" depart="87.00">
        <route edges="WR EL"/>
    </vehicle>
    <vehicle id="88" depart="88.00">
        <route edges="ER NL"/>
    </vehicle>
    <vehicle id="91" depart="91.00">
        <route edges="WR EL"/>
    </vehicle>
    <vehicle id="93" depart="93.00">
        <route edges="WR EL"/>
    </vehicle>
    <vehicle id="94" depart="94.00">
        <route edges="ER NL"/>
    </vehicle>
    <vehicle id="96" depart="96.00">
        <route edges="ER WL"/>
    </vehicle>
    <vehicle id="97" depart="97.00">
        <route edges="NR WL"/>
    </vehicle>
    <vehicle id="98" depart="98.00">
        <route edges="SR EL"/>
    </vehicle>
    <vehicle id="101" depart="101.00">
        <route edges="WR EL"/>
    </vehicle>
    <vehicle id="104" depart="104.00">
        <route edges="NR WL"/>
    </vehicle>
    <vehicle id="105" depart="105.00">
        <route edges="NR WL"/>
    </vehicle>
    <vehicle id="109" depart="109.00">
        <route edges="ER NL"/>
    </vehicle>
    <vehicle id="110" depart="110.00">
        <route edges="WR SL"/>
    </vehicle>
    <vehicle id="114" depart="114.00">
        <route edges="ER WL"/>
    </vehicle>
    <vehicle id="118" depart="118.00">
        <route edges="WR EL"/>
    </vehicle>
    <vehicle id="120" depart="120.00">
        <route edges="NR SL"/>
    </vehicle>
    <vehicle id="123" depart="123.00">
        <route edges="ER NL"/>
    </vehicle>
    <vehicle id="124" depart="124.00">
        <route edges="SR NL"/>
    </vehicle>
    <vehicle id="125" depart="125.00">
        <route edges="NR WL"/>
    </vehicle>
    <vehicle id="126" depart="126.00">
        <route edges="ER NL"/>
    </vehicle>
    <vehicle id="129" depart="129.00">
        <route edges="NR WL"/>
    </vehicle>
    <vehicle id="132" depart="132.00">
        <route edges="WR SL"/>
    </vehicle>
    <vehicle id="134" depart="134.00">
        <route edges="SR EL"/>
    </vehicle>
    <vehicle id="139" depart="139.00">
        <route edges="NR SL"/>
    </vehicle>
    <vehicle id="140" depart="140.00">
        <route edges="SR EL"/>
    </vehicle>
    <vehicle id="141" depart="141.00">
        <route edges="SR NL"/>
    </vehicle>
    <vehicle id="142" depart="142.00">
        <route edges="NR WL"/>
    </vehicle>
    <vehicle id="143" depart="143.00">
        <route edges="WR EL"/>
    </vehicle>
    <vehicle id="145" depart="145.00">
        <route edges="ER WL"/>
    </vehicle>
    <vehicle id="146" depart="146.00">
        <route edges="SR NL"/>
    </vehicle>
    <vehicle id="149" depart="149.00">
        <route edges="ER WL"/>
    </vehicle>
    <vehicle id="150" depart="150.00">
        <route edges="WR SL"/>
    </vehicle>
    <vehicle id="151" depart="151.00">
        <route edges="WR SL"/>
    </vehicle>
    <vehicle id="153" depart="153.00">
        <route edges="NR WL"/>
    </vehicle>
    <vehicle id="155" depart="155.00">
        <route edges="WR EL"/>
    </vehicle>
    <vehicle id="158" depart="158.00">
        <route edges="NR SL"/>
    </vehicle>
    <vehicle id="159" depart="159.00">
        <route edges="ER WL"/>
    </vehicle>
    <vehicle id="163" depart="163.00">
        <route edges="NR WL"/>
    </vehicle>
    <vehicle id="166" depart="166.00">
        <route edges="WR EL"/>
    </vehicle>
    <vehicle id="168" depart="168.00">
        <route edges="ER WL"/>
    </vehicle>
    <vehicle id="170" depart="170.00">
        <route edges="WR EL"/>
    </vehicle>
    <vehicle id="172" depart="172.00">
        <route edges="NR WL"/>
    </vehicle>
    <vehicle id="174" depart="174.00">
        <route edges="SR NL"/>
    </vehicle>
    <vehicle id="175" depart="175.00">
        <route edges="WR SL"/>
    </vehicle>
    <vehicle id="176" depart="176.00">
        <route edges="WR EL"/>
    </vehicle>
    <vehicle id="177" depart="177.00">
        <route edges="WR EL"/>
    </vehicle>
    <vehicle id="179" depart="179.00">
        <route edges="ER NL"/>
    </vehicle>
    <vehicle id="180" depart="180.00">
        <route edges="SR NL"/>
    </vehicle>
    <vehicle id="182" depart="182.00">
        <route edges="NR SL"/>
    </vehicle>
    <vehicle id="183" depart="183.00">
        <route edges="NR SL"/>
    </vehicle>
    <vehicle id="184" depart="184.00">
        <route edges="ER WL"/>
    </vehicle>
    <vehicle id="188" depart="188.00">
        <route edges="SR NL"/>
    </vehicle>
    <vehicle id="189" depart="189.00">
        <route edges="NR WL"/>
    </vehicle>
    <vehicle id="190" depart="190.00">
        <route edges="SR NL"/>
    </vehicle>
    <vehicle id="193" depart="193.00">
        <route edges="ER NL"/>
    </vehicle>
    <vehicle id="194" depart="194.00">
        <route edges="WR SL"/>
    </vehicle>
    <vehicle id="195" depart="195.00">
        <route edges="WR SL"/>
    </vehicle>
    <vehicle id="196" depart="196.00">
        <route edges="NR SL"/>
    </vehicle>
    <vehicle id="197" depart="197.00">
        <route edges="ER NL"/>
    </vehicle>
    <vehicle id="198" depart="198.00">
        <route edges="NR SL"/>
    </vehicle>
    <vehicle id="199" depart="199.00">
        <route edges="SR NL"/>
    </vehicle>
    <vehicle id="201" depart="201.00">
        <route edges="NR WL"/>
    </vehicle>
    <vehicle id="202" depart="202.00">
        <route edges="WR EL"/>
    </vehicle>
    <vehicle id="204" depart="204.00">
        <route edges="SR NL"/>
    </vehicle>
    <vehicle id="206" depart="206.00">
        <route edges="SR EL"/>
    </vehicle>
    <vehicle id="208" depart="208.00">
        <route edges="ER NL"/>
    </vehicle>
    <vehicle id="209" depart="209.00">
        <route edges="WR EL"/>
    </vehicle>
    <vehicle id="210" depart="210.00">
        <route edges="NR SL"/>
    </vehicle>
    <vehicle id="213" depart="213.00">
        <route edges="SR EL"/>
    </vehicle>
    <vehicle id="215" depart="215.00">
        <route edges="ER NL"/>
    </vehicle>
    <vehicle id="216" depart="216.00">
        <route edges="ER WL"/>
    </vehicle>
    <vehicle id="217" depart="217.00">
        <route edges="SR EL"/>
    </vehicle>
    <vehicle id="218" depart="218.00">
        <route edges="ER WL"/>
    </vehicle>
    <vehicle id="219" depart="219.00">
        <route edges="NR WL"/>
    </vehicle>
    <vehicle id="222" depart="222.00">
        <route edges="WR SL"/>
    </vehicle>
    <vehicle id="224" depart="224.00">
        <route edges="WR SL"/>
    </vehicle>
    <vehicle id="225" depart="225.00">
        <route edges="WR SL"/>
    </vehicle>
    <vehicle id="228" depart="228.00">
        <route edges="WR SL"/>
    </vehicle>
    <vehicle id="229" depart="229.00">
        <route edges="SR NL"/>
    </vehicle>
    <vehicle id="230" depart="230.00">
        <route edges="ER NL"/>
    </vehicle>
    <vehicle id="232" depart="232.00">
        <route edges="SR EL"/>
    </vehicle>
    <vehicle id="234" depart="234.00">
        <route edges="SR EL"/>
    </vehicle>
    <vehicle id="235" depart="235.00">
        <route edges="NR SL"/>
    </vehicle>
    <vehicle id="237" depart="237.00">
        <route edges="NR WL"/>
    </vehicle>
    <vehicle id="241" depart="241.00">
        <route edges="NR WL"/>
    </vehicle>
    <vehicle id="243" depart="243.00">
        <route edges="NR SL"/>
    </vehicle>
    <vehicle id="247" depart="247.00">
        <route edges="NR SL"/>
    </vehicle>
    <vehicle id="250" depart="250.00">
        <route edges="SR EL"/>
    </vehicle>
    <vehicle id="251" depart="251.00">
        <route edges="NR SL"/>
    </vehicle>
    <vehicle id="253" depart="253.00">
        <route edges="ER NL"/>
    </vehicle>
    <vehicle id="254" depart="254.00">
        <route edges="ER NL"/>
    </vehicle>
    <vehicle id="255" depart="255.00">
        <route edges="ER NL"/>
    </vehicle>
    <vehicle id="263" depart="263.00">
        <route edges="WR EL"/>
    </vehicle>
    <vehicle id="266" depart="266.00">
        <route edges="SR EL"/>
    </vehicle>
    <vehicle id="269" depart="269.00">
        <route edges="SR EL"/>
    </vehicle>
    <vehicle id="272" depart="272.00">
        <route edges="NR SL"/>
    </vehicle>
    <vehicle id="274" depart="274.00">
        <route edges="SR EL"/>
    </vehicle>
    <vehicle id="276" depart="276.00">
        <route edges="ER WL"/>
    </vehicle>
    <vehicle id="277" depart="277.00">
        <route edges="WR SL"/>
    </vehicle>
    <vehicle id="278" depart="278.00">
        <route edges="ER WL"/>
    </vehicle>
    <vehicle id="281" depart="281.00">
        <route edges="SR NL"/>
    </vehicle>
    <vehicle id="283" depart="283.00">
        <route edges="ER WL"/>
    </vehicle>
    <vehicle id="285" depart="285.00">
        <route edges="SR NL"/>
    </vehicle>
    <vehicle id="287" depart="287.00">
        <route edges="NR WL"/>
    </vehicle>
    <vehicle id="288" depart="288.00">
        <route edges="SR NL"/>
    </vehicle>
    <vehicle id="289" depart="289.00">
        <route edges="NR SL"/>
    </vehicle>
    <vehicle id="290" depart="290.00">
        <route edges="NR WL"/>
    </vehicle>
    <vehicle id="291" depart="291.00">
        <route edges="WR EL"/>
    </vehicle>
    <vehicle id="292" depart="292.00">
        <route edges="WR EL"/>
    </vehicle>
    <vehicle id="293" depart="293.00">
        <route edges="NR SL"/>
    </vehicle>
    <vehicle id="295" depart="295.00">
        <route edges="WR EL"/>
    </vehicle>
    <vehicle id="296" depart="296.00">
        <route edges="ER WL"/>
    </vehicle>
    <vehicle id="297" depart="297.00">
        <route edges="NR WL"/>
    </vehicle>
    <vehicle id="298" depart="298.00">
        <route edges="SR NL"/>
    </vehicle>
    <vehicle id="299" depart="299.00">
        <route edges="ER WL"/>
    </vehicle>
    <vehicle id="301" depart="301.00">
        <route edges="NR WL"/>
    </vehicle>
    <vehicle id="303" depart="303.00">
        <route edges="NR WL"/>
    </vehicle>
    <vehicle id="305" depart="305.00">
        <route edges="SR NL"/>
    </vehicle>
    <vehicle id="306" depart="306.00">
        <route edges="SR NL"/>
    </vehicle>
    <vehicle id="307" depart="307.00">
        <route edges="SR NL"/>
    </vehicle>
    <vehicle id="308" depart="308.00">
        <route edges="SR NL"/>
    </vehicle>
    <vehicle id="309" depart="309.00">
        <route edges="SR NL"/>
    </vehicle>
    <vehicle id="314" depart="314.00">
        <route edges="NR SL"/>
    </vehicle>
    <vehicle id="315" depart="315.00">
        <route edges="WR SL"/>
    </vehicle>
    <vehicle id="319" depart="319.00">
        <route edges="SR NL"/>
    </vehicle>
    <vehicle id="320" depart="320.00">
        <route edges="WR SL"/>
    </vehicle>
    <vehicle id="321" depart="321.00">
        <route edges="SR EL"/>
    </vehicle>
    <vehicle id="323" depart="323.00">
        <route edges="WR SL"/>
    </vehicle>
    <vehicle id="330" depart="330.00">
        <route edges="SR NL"/>
    </vehicle>
    <vehicle id="331" depart="331.00">
        <route edges="WR EL"/>
    </vehicle>
    <vehicle id="332" depart="332.00">
        <route edges="WR SL"/>
    </vehicle>
    <vehicle id="333" depart="333.00">
        <route edges="WR EL"/>
    </vehicle>
    <vehicle id="334" depart="334.00">
        <route edges="SR NL"/>
    </vehicle>
    <vehicle id="335" depart="335.00">
        <route edges="NR WL"/>
    </vehicle>
    <vehicle id="340" depart="340.00">
        <route edges="SR EL"/>
    </vehicle>
    <vehicle id="342" depart="342.00">
        <route edges="ER NL"/>
    </vehicle>
    <vehicle id="343" depart="343.00">
        <route edges="SR NL"/>
    </vehicle>
    <vehicle id="345" depart="345.00">
        <route edges="SR NL"/>
    </vehicle>
    <vehicle id="347" depart="347.00">
        <route edges="WR SL"/>
    </vehicle>
    <vehicle id="349" depart="349.00">
        <route edges="NR SL"/>
    </vehicle>
    <vehicle id="351" depart="351.00">
        <route edges="WR EL"/>
    </vehicle>
    <vehicle id="352" depart="352.00">
        <route edges="ER NL"/>
    </vehicle>
    <vehicle id="356" depart="356.00">
        <route edges="WR SL"/>
    </vehicle>
    <vehicle id="358" depart="358.00">
        <route edges="ER NL"/>
    </vehicle>
    <vehicle id="360" depart="360.00">
        <route edges="ER WL"/>
    </vehicle>
    <vehicle id="361" depart="361.00">
        <route edges="WR SL"/>
    </vehicle>
    <vehicle id="363" depart="363.00">
        <route edges="SR NL"/>
    </vehicle>
    <vehicle id="364" depart="364.00">
        <route edges="ER WL"/>
    </vehicle>
    <vehicle id="365" depart="365.00">
        <route edges="NR SL"/>
    </vehicle>
    <vehicle id="366" depart="366.00">
        <route edges="WR EL"/>
    </vehicle>
    <vehicle id="371" depart="371.00">
        <route edges="NR SL"/>
    </vehicle>
    <vehicle id="372" depart="372.00">
        <route edges="NR WL"/>
    </vehicle>
    <vehicle id="373" depart="373.00">
        <route edges="WR SL"/>
    </vehicle>
    <vehicle id="375" depart="375.00">
        <route edges="NR WL"/>
    </vehicle>
    <vehicle id="376" depart="376.00">
        <route edges="NR SL"/>
    </vehicle>
    <vehicle id="377" depart="377.00">
        <route edges="WR SL"/>
    </vehicle>
    <vehicle id="378" depart="378.00">
        <route edges="SR NL"/>
    </vehicle>
    <vehicle id="379" depart="379.00">
        <route edges="ER NL"/>
    </vehicle>
    <vehicle id="380" depart="380.00">
        <route edges="WR SL"/>
    </vehicle>
    <vehicle id="381" depart="381.00">
        <route edges="WR EL"/>
    </vehicle>
    <vehicle id="383" depart="383.00">
        <route edges="NR SL"/>
    </vehicle>
    <vehicle id="384" depart="384.00">
        <route edges="ER WL"/>
    </vehicle>
    <vehicle id="385" depart="385.00">
        <route edges="SR EL"/>
    </vehicle>
    <vehicle id="387" depart="387.00">
        <route edges="SR EL"/>
    </vehicle>
    <vehicle id="392" depart="392.00">
        <route edges="NR WL"/>
    </vehicle>
    <vehicle id="393" depart="393.00">
        <route edges="WR EL"/>
    </vehicle>
    <vehicle id="394" depart="394.00">
        <route edges="SR NL"/>
    </vehicle>
    <vehicle id="395" depart="395.00">
        <route edges="WR SL"/>
    </vehicle>
    <vehicle id="397" depart="397.00">
        <route edges="NR WL"/>
    </vehicle>
    <vehicle id="398" depart="398.00">
        <route edges="NR WL"/>
    </vehicle>
    <vehicle id="403" depart="403.00">
        <route edges="SR NL"/>
    </vehicle>
    <vehicle id="407" depart="407.00">
        <route edges="SR EL"/>
    </vehicle>
    <vehicle id="408" depart="408.00">
        <route edges="WR EL"/>
    </vehicle>
    <vehicle id="416" depart="416.00">
        <route edges="SR NL"/>
    </vehicle>
    <vehicle id="417" depart="417.00">
        <route edges="SR NL"/>
    </vehicle>
    <vehicle id="418" depart="418.00">
        <route edges="SR EL"/>
    </vehicle>
    <vehicle id="419" depart="419.00">
        <route edges="NR WL"/>
    </vehicle>
    <vehicle id="420" depart="420.00">
        <route edges="NR SL"/>
    </vehicle>
    <vehicle id="425" depart="425.00">
        <route edges="WR EL"/>
    </vehicle>
    <vehicle id="428" depart="428.00">
        <route edges="SR NL"/>
    </vehicle>
    <vehicle id="432" depart="432.00">
        <route edges="ER WL"/>
    </vehicle>
    <vehicle id="437" depart="437.00">
        <route edges="WR SL"/>
    </vehicle>
    <vehicle id="438" depart="438.00">
        <route edges="ER WL"/>
    </vehicle>
    <vehicle id="439" depart="439.00">
        <route edges="ER NL"/>
    </vehicle>
    <vehicle id="441" depart="441.00">
        <route edges="ER WL"/>
    </vehicle>
    <vehicle id="442" depart="442.00">
        <route edges="WR SL"/>
    </vehicle>
    <vehicle id="443" depart="443.00">
        <route edges="ER NL"/>
    </vehicle>
    <vehicle id="444" depart="444.00">
        <route edges="NR SL"/>
    </vehicle>
    <vehicle id="445" depart="445.00">
        <route edges="SR NL"/>
    </vehicle>
    <vehicle id="446" depart="446.00">
        <route edges="NR WL"/>
    </vehicle>
    <vehicle id="447" depart="447.00">
        <route edges="ER NL"/>
    </vehicle>
    <vehicle id="451" depart="451.00">
        <route edges="WR SL"/>
    </vehicle>
    <vehicle id="452" depart="452.00">
        <route edges="NR SL"/>
    </vehicle>
    <vehicle id="455" depart="455.00">
        <route edges="NR WL"/>
    </vehicle>
    <vehicle id="456" depart="456.00">
        <route edges="NR WL"/>
    </vehicle>
    <vehicle id="457" depart="457.00">
        <route edges="SR NL"/>
    </vehicle>
    <vehicle id="462" depart="462.00">
        <route edges="SR NL"/>
    </vehicle>
    <vehicle id="463" depart="463.00">
        <route edges="NR SL"/>
    </vehicle>
    <vehicle id="464" depart="464.00">
        <route edges="SR EL"/>
    </vehicle>
    <vehicle id="465" depart="465.00">
        <route edges="NR SL"/>
    </vehicle>
    <vehicle id="471" depart="471.00">
        <route edges="WR SL"/>
    </vehicle>
    <vehicle id="473" depart="473.00">
        <route edges="WR EL"/>
    </vehicle>
    <vehicle id="477" depart="477.00">
        <route edges="NR WL"/>
    </vehicle>
    <vehicle id="479" depart="479.00">
        <route edges="NR SL"/>
    </vehicle>
    <vehicle id="483" depart="483.00">
        <route edges="ER WL"/>
    </vehicle>
    <vehicle id="488" depart="488.00">
        <route edges="ER WL"/>
    </vehicle>
    <vehicle id="490" depart="490.00">
        <route edges="ER WL"/>
    </vehicle>
    <vehicle id="491" depart="491.00">
        <route edges="ER NL"/>
    </vehicle>
    <vehicle id="494" depart="494.00">
        <route edges="SR EL"/>
    </vehicle>
    <vehicle id="497" depart="497.00">
        <route edges="WR EL"/>
    </vehicle>
    <vehicle id="506" depart="506.00">
        <route edges="SR EL"/>
    </vehicle>
    <vehicle id="507" depart="507.00">
        <route edges="WR EL"/>
    </vehicle>
    <vehicle id="509" depart="509.00">
        <route edges="ER WL"/>
    </vehicle>
    <vehicle id="512" depart="512.00">
        <route edges="ER WL"/>
    </vehicle>
    <vehicle id="513" depart="513.00">
        <route edges="ER WL"/>
    </vehicle>
    <vehicle id="516" depart="516.00">
        <route edges="SR EL"/>
    </vehicle>
    <vehicle id="517" depart="517.00">
        <route edges="ER WL"/>
    </vehicle>
    <vehicle id="518" depart="518.00">
        <route edges="ER NL"/>
    </vehicle>
    <vehicle id="521" depart="521.00">
        <route edges="SR NL"/>
    </vehicle>
    <vehicle id="522" depart="522.00">
        <route edges="WR SL"/>
    </vehicle>
    <vehicle id="524" depart="524.00">
        <route edges="WR EL"/>
    </vehicle>
    <vehicle id="526" depart="526.00">
        <route edges="SR NL"/>
    </vehicle>
    <vehicle id="527" depart="527.00">
        <route edges="WR EL"/>
    </vehicle>
    <vehicle id="529" depart="529.00">
        <route edges="SR NL"/>
    </vehicle>
    <vehicle id="530" depart="530.00">
        <route edges="WR EL"/>
    </vehicle>
    <vehicle id="532" depart="532.00">
        <route edges="ER NL"/>
    </vehicle>
    <vehicle id="534" depart="534.00">
        <route edges="NR WL"/>
    </vehicle>
    <vehicle id="535" depart="535.00">
        <route edges="SR NL"/>
    </vehicle>
    <vehicle id="536" depart="536.00">
        <route edges="SR EL"/>
    </vehicle>
    <vehicle id="539" depart="539.00">
        <route edges="SR EL"/>
    </vehicle>
    <vehicle id="543" depart="543.00">
        <route edges="NR SL"/>
    </vehicle>
    <vehicle id="545" depart="545.00">
        <route edges="WR EL"/>
    </vehicle>
    <vehicle id="546" depart="546.00">
        <route edges="WR EL"/>
    </vehicle>
    <vehicle id="548" depart="548.00">
        <route edges="WR SL"/>
    </vehicle>
    <vehicle id="551" depart="551.00">
        <route edges="NR SL"/>
    </vehicle>
    <vehicle id="554" depart="554.00">
        <route edges="SR NL"/>
    </vehicle>
    <vehicle id="555" depart="555.00">
        <route edges="SR EL"/>
    </vehicle>
    <vehicle id="556" depart="556.00">
        <route edges="SR EL"/>
    </vehicle>
    <vehicle id="557" depart="557.00">
        <route edges="ER WL"/>
    </vehicle>
    <vehicle id="558" depart="558.00">
        <route edges="NR WL"/>
    </vehicle>
    <vehicle id="561" depart="561.00">
        <route edges="WR SL"/>
    </vehicle>
    <vehicle id="562" depart="562.00">
        <route edges="SR EL"/>
    </vehicle>
    <vehicle id="565" depart="565.00">
        <route edges="SR NL"/>
    </vehicle>
    <vehicle id="567" depart="567.00">
        <route edges="WR SL"/>
    </vehicle>
    <vehicle id="569" depart="569.00">
        <route edges="SR EL"/>
    </vehicle>
    <vehicle id="570" depart="570.00">
        <route edges="SR EL"/>
    </vehicle>
    <vehicle id="572" depart="572.00">
        <route edges="NR SL"/>
    </vehicle>
    <vehicle id="573" depart="573.00">
        <route edges="WR SL"/>
    </vehicle>
    <vehicle id="576" depart="576.00">
        <route edges="SR NL"/>
    </vehicle>
    <vehicle id="577" depart="577.00">
        <route edges="SR NL"/>
    </vehicle>
    <vehicle id="579" depart="579.00">
        <route edges="WR EL"/>
    </vehicle>
    <vehicle id="581" depart="581.00">
        <route edges="SR NL"/>
    </vehicle>
    <vehicle id="582" depart="582.00">
        <route edges="SR EL"/>
    </vehicle>
    <vehicle id="583" depart="583.00">
        <route edges="NR SL"/>
    </vehicle>
    <vehicle id="584" depart="584.00">
        <route edges="ER NL"/>
    </vehicle>
    <vehicle id="588" depart="588.00">
        <route edges="ER NL"/>
    </vehicle>
    <vehicle id="591" depart="591.00">
        <route edges="ER WL"/>
    </vehicle>
    <vehicle id="595" depart="595.00">
        <route edges="SR NL"/>
    </vehicle>
    <vehicle id="597" depart="597.00">
        <route edges="NR WL"/>
    </vehicle>
    <vehicle id="599" depart="599.00">
        <route edges="WR EL"/>
    </vehicle>
    <vehicle id="600" depart="600.00">
        <route edges="WR EL"/>
    </vehicle>
    <vehicle id="608" depart="608.00">
        <route edges="WR EL"/>
    </vehicle>
    <vehicle id="611" depart="611.00">
        <route edges="SR EL"/>
    </vehicle>
    <vehicle id="614" depart="614.00">
        <route edges="NR WL"/>
    </vehicle>
    <vehicle id="617" depart="617.00">
        <route edges="SR EL"/>
    </vehicle>
    <vehicle id="618" depart="618.00">
        <route edges="ER NL"/>
    </vehicle>
    <vehicle id="622" depart="622.00">
        <route edges="ER WL"/>
    </vehicle>
    <vehicle id="623" depart="623.00">
        <route edges="ER WL"/>
    </vehicle>
    <vehicle id="624" depart="624.00">
        <route edges="WR SL"/>
    </vehicle>
    <vehicle id="625" depart="625.00">
        <route edges="SR NL"/>
    </vehicle>
    <vehicle id="628" depart="628.00">
        <route edges="WR SL"/>
    </vehicle>
    <vehicle id="631" depart="631.00">
        <route edges="ER WL"/>
    </vehicle>
    <vehicle id="632" depart="632.00">
        <route edges="NR SL"/>
    </vehicle>
    <vehicle id="633" depart="633.00">
        <route edges="SR EL"/>
    </vehicle>
    <vehicle id="634" depart="634.00">
        <route edges="ER NL"/>
    </vehicle>
    <vehicle id="635" depart="635.00">
        <route edges="NR SL"/>
    </vehicle>
    <vehicle id="636" depart="636.00">
        <route edges="ER NL"/>
    </vehicle>
    <vehicle id="638" depart="638.00">
        <route edges="NR SL"/>
    </vehicle>
    <vehicle id="639" depart="639.00">
        <route edges="WR SL"/>
    </vehicle>
    <vehicle id="641" depart="641.00">
        <route edges="SR NL"/>
    </vehicle>
    <vehicle id="644" depart="644.00">
        <route edges="NR SL"/>
    </vehicle>
    <vehicle id="645" depart="645.00">
        <route edges="ER NL"/>
    </vehicle>
    <vehicle id="646" depart="646.00">
        <route edges="WR SL"/>
    </vehicle>
    <vehicle id="647" depart="647.00">
        <route edges="NR SL"/>
    </vehicle>
    <vehicle id="649" depart="649.00">
        <route edges="NR WL"/>
    </vehicle>
    <vehicle id="650" depart="650.00">
        <route edges="WR SL"/>
    </vehicle>
    <vehicle id="651" depart="651.00">
        <route edges="WR SL"/>
    </vehicle>
    <vehicle id="653" depart="653.00">
        <route edges="SR NL"/>
    </vehicle>
    <vehicle id="658" depart="658.00">
        <route edges="ER WL"/>
    </vehicle>
    <vehicle id="659" depart="659.00">
        <route edges="ER WL"/>
    </vehicle>
    <vehicle id="661" depart="661.00">
        <route edges="ER NL"/>
    </vehicle>
    <vehicle id="662" depart="662.00">
        <route edges="WR EL"/>
    </vehicle>
    <vehicle id="665" depart="665.00">
        <route edges="WR EL"/>
    </vehicle>
    <vehicle id="667" depart="667.00">
        <route edges="SR EL"/>
    </vehicle>
    <vehicle id="669" depart="669.00">
        <route edges="SR NL"/>
    </vehicle>
    <vehicle id="670" depart="670.00">
        <route edges="SR NL"/>
    </vehicle>
    <vehicle id="675" depart="675.00">
        <route edges="NR SL"/>
    </vehicle>
    <vehicle id="677" depart="677.00">
        <route edges="WR EL"/>
    </vehicle>
    <vehicle id="678" depart="678.00">