<?xml version="1.0" encoding="UTF-8"?>

<!-- generated on 2021-06-03 20:25:16 by Eclipse SUMO netedit Version 1.9.2
<configuration xmlns:xsi="http://www.w3.org/2001/XMLSchema-instance" xsi:noNamespaceSchemaLocation="http://sumo.dlr.de/xsd/netconvertConfiguration.xsd">

    <input>
        <sumo-net-file value="/home/irakli/Desktop/lights_2/lights.net.xml"/>
    </input>

    <output>
        <output-file value="/home/irakli/Desktop/lights_2/lights.net.xml"/>
    </output>

    <processing>
        <geometry.min-radius.fix.railways value="false"/>
        <geometry.max-grade.fix value="false"/>
        <offset.disable-normalization value="true"/>
        <lefthand value="false"/>
    </processing>

    <junctions>
        <no-turnarounds value="true"/>
        <junctions.corner-detail value="5"/>
        <junctions.limit-turn-speed value="5.5"/>
        <rectangular-lane-cut value="false"/>
    </junctions>

    <pedestrian>
        <walkingareas value="false"/>
    </pedestrian>

    <report>
        <aggregate-warnings value="5"/>
    </report>

</configuration>
-->

<net version="1.9" junctionCornerDetail="5" limitTurnSpeed="5.50" xmlns:xsi="http://www.w3.org/2001/XMLSchema-instance" xsi:noNamespaceSchemaLocation="http://sumo.dlr.de/xsd/net_file.xsd">

    <location netOffset="0.00,0.00" convBoundary="-100.00,-300.00,300.00,100.00" origBoundary="-10000000000.00,-10000000000.00,10000000000.00,10000000000.00" projParameter="!"/>

    <edge id=":C_0" function="internal">
        <lane id=":C_0_0" index="0" speed="6.51" length="9.03" shape="98.40,-92.80 98.05,-95.25 97.00,-97.00 95.25,-98.05 92.80,-98.40"/>
    </edge>
    <edge id=":C_1" function="internal">
        <lane id=":C_1_0" index="0" speed="13.89" length="14.40" shape="98.40,-92.80 98.40,-107.20"/>
    </edge>
    <edge id=":C_2" function="internal">
        <lane id=":C_2_0" index="0" speed="6.51" length="9.03" shape="107.20,-98.40 104.75,-98.05 103.00,-97.00 101.95,-95.25 101.60,-92.80"/>
    </edge>
    <edge id=":C_3" function="internal">
        <lane id=":C_3_0" index="0" speed="13.89" length="14.40" shape="107.20,-98.40 92.80,-98.40"/>
    </edge>
    <edge id=":C_4" function="internal">
        <lane id=":C_4_0" index="0" speed="6.51" length="9.03" shape="101.60,-107.20 101.95,-104.75 103.00,-103.00 104.75,-101.95 107.20,-101.60"/>
    </edge>
    <edge id=":C_5" function="internal">
        <lane id=":C_5_0" index="0" speed="13.89" length="14.40" shape="101.60,-107.20 101.60,-92.80"/>
    </edge>
    <edge id=":C_6" function="internal">
        <lane id=":C_6_0" index="0" speed="6.51" length="9.03" shape="92.80,-101.60 95.25,-101.95 97.00,-103.00 98.05,-104.75 98.40,-107.20"/>
    </edge>
    <edge id=":C_7" function="internal">
        <lane id=":C_7_0" index="0" speed="13.89" length="14.40" shape="92.80,-101.60 107.20,-101.60"/>
    </edge>

    <edge id="EL" from="C" to="E" priority="-1">
        <lane id="EL_0" index="0" speed="13.89" length="192.80" shape="107.20,-101.60 300.00,-101.60"/>
    </edge>
    <edge id="ER" from="E" to="C" priority="-1">
        <lane id="ER_0" index="0" speed="13.89" length="192.80" shape="300.00,-98.40 107.20,-98.40"/>
    </edge>
    <edge id="NL" from="C" to="N" priority="-1">
        <lane id="NL_0" index="0" speed="13.89" length="192.80" shape="101.60,-92.80 101.60,100.00"/>
    </edge>
    <edge id="NR" from="N" to="C" priority="-1">
        <lane id="NR_0" index="0" speed="13.89" length="192.80" shape="98.40,100.00 98.40,-92.80"/>
    </edge>
    <edge id="SL" from="C" to="S" priority="-1">
        <lane id="SL_0" index="0" speed="13.89" length="192.80" shape="98.40,-107.20 98.40,-300.00"/>
    </edge>
    <edge id="SR" from="S" to="C" priority="-1">
        <lane id="SR_0" index="0" speed="13.89" length="192.80" shape="101.60,-300.00 101.60,-107.20"/>
    </edge>
    <edge id="WL" from="C" to="W" priority="-1">
        <lane id="WL_0" index="0" speed="13.89" length="192.80" shape="92.80,-98.40 -100.00,-98.40"/>
    </edge>
    <edge id="WR" from="W" to="C" priority="-1">
        <lane id="WR_0" index="0" speed="13.89" length="192.80" shape="-100.00,-101.60 92.80,-101.60"/>
    </edge>

    <tlLogic id="Ctl" type="static" programID="1" offset="0">
        <phase duration="10000" state="GGrrGGrr"/>
        <phase duration="3" state="yyYYyyYY"/>
        <phase duration="10000" state="rrGGrrGG"/>
        <phase duration="3" state="YYyyYYyy"/>
    </tlLogic>

    <junction id="C" type="traffic_light" x="100.00" y="-100.00" incLanes="NR_0 ER_0 SR_0 WR_0" intLanes=":C_0_0 :C_1_0 :C_2_0 :C_3_0 :C_4_0 :C_5_0 :C_6_0 :C_7_0" shape="96.80,-92.80 103.20,-92.80 103.64,-95.02 104.20,-95.80 104.98,-96.36 105.98,-96.69 107.20,-96.80 107.20,-103.20 104.98,-103.64 104.20,-104.20 103.64,-104.98 103.31,-105.98 103.20,-107.20 96.80,-107.20 96.36,-104.98 95.80,-104.20 95.02,-103.64 94.02,-103.31 92.80,-103.20 92.80,-96.80 95.02,-96.36 95.80,-95.80 96.36,-95.02 96.69,-94.02">
        <request index="0" response="00000000" foes="00001000" cont="0"/>
        <request index="1" response="00000000" foes="11001000" cont="0"/>
        <request index="2" response="00100000" foes="00100000" cont="0"/>
        <request index="3" response="00100011" foes="00100011" cont="0"/>
        <request index="4" response="00000000" foes="10000000" cont="0"/>
        <request index="5" response="00000000" foes="10001100" cont="0"/>
        <request index="6" response="00000010" foes="00000010" cont="0"/>
        <request index="7" response="00110010" foes="00110010" cont="0"/>
    </junction>
    <junction id="E" type="dead_end" x="300.00" y="-100.00" incLanes="EL_0" intLanes="" shape="300.00,-100.00 300.00,-103.20 300.00,-100.00"/>
    <junction id="N" type="dead_end" x="100.00" y="100.00" incLanes="NL_0" intLanes="" shape="100.00,100.00 103.20,100.00 100.00,100.00"/>
    <junction id="S" type="dead_end" x="100.00" y="-300.00" incLanes="SL_0" intLanes="" shape="100.00,-300.00 96.80,-300.00 100.00,-300.00"/>
    <junction id="W" type="dead_end" x="-100.00" y="-100.00" incLanes="WL_0" intLanes="" shape="-100.00,-100.00 -100.00,-96.80 -100.00,-100.00"/>

    <connection from="ER" to="NL" fromLane="0" toLane="0" via=":C_2_0" tl="Ctl" linkIndex="2" dir="r" state="o"/>
    <connection from="ER" to="WL" fromLane="0" toLane="0" via=":C_3_0" tl="Ctl" linkIndex="3" dir="s" state="o"/>
    <connection from="NR" to="WL" fromLane="0" toLane="0" via=":C_0_0" tl="Ctl" linkIndex="0" dir="r" state="O"/>
    <connection from="NR" to="SL" fromLane="0" toLane="0" via=":C_1_0" tl="Ctl" linkIndex="1" dir="s" state="O"/>
    <connection from="SR" to="EL" fromLane="0" toLane="0" via=":C_4_0" tl="Ctl" linkIndex="4" dir="r" state="O"/>
    <connection from="SR" to="NL" fromLane="0" toLane="0" via=":C_5_0" tl="Ctl" linkIndex="5" dir="s" state="O"/>
    <connection from="WR" to="SL" fromLane="0" toLane="0" via=":C_6_0" tl="Ctl" linkIndex="6" dir="r" state="o"/>
    <connection from="WR" to="EL" fromLane="0" toLane="0" via=":C_7_0" tl="Ctl" linkIndex="7" dir="s" state="o"/>

    <connection from=":C_0" to="WL" fromLane="0" toLane="0" dir="r" state="M"/>
    <connection from=":C_1" to="SL" fromLane="0" toLane="0" dir="s" state="M"/>
    <connection from=":C_2" to="NL" fromLane="0" toLane="0" dir="r" state="M"/>
    <connection from=":C_3" to="WL" fromLane="0" toLane="0" dir="s" state="M"/>
    <connection from=":C_4" to="EL" fromLane="0" toLane="0" dir="r" state="M"/>
    <connection from=":C_5" to="NL" fromLane="0" toLane="0" dir="s" state="M"/>
    <connection from=":C_6" to="SL" fromLane="0" toLane="0" dir="r" state="M"/>
    <connection from=":C_7" to="EL" fromLane="0" toLane="0" dir="s" state="M"/>

</net>
