<additional xmlns:xsi="http://www.w3.org/2001/XMLSchema-instance" xsi:noNamespaceSchemaLocation="http://sumo.dlr.de/xsd/additional_file.xsd">
    <laneAreaDetector file="e2output.xml" freq="60" speedThreshold="10" friendlyPos="x" id="e2det_0_10_A0A1_0" lane="A0A1_0" length="34.00000000000001" pos="0.0"/>
    <laneAreaDetector file="e2output.xml" freq="60" speedThreshold="30" friendlyPos="x" id="e2det_0_30_A0A1_0" lane="A0A1_0" length="34.00000000000001" pos="0.0"/>
    <laneAreaDetector file="e2output.xml" freq="60" speedThreshold="100" friendlyPos="x" id="e2det_0_100_A0A1_0" lane="A0A1_0" length="34.00000000000001" pos="0.0"/>
    <laneAreaDetector file="e2output.xml" freq="60" speedThreshold="10" friendlyPos="x" id="e2det_1_10_A0A1_0" lane="A0A1_0" length="34.00000000000001" pos="-34.300000000000004"/>
    <laneAreaDetector file="e2output.xml" freq="60" speedThreshold="30" friendlyPos="x" id="e2det_1_30_A0A1_0" lane="A0A1_0" length="34.00000000000001" pos="-34.300000000000004"/>
    <laneAreaDetector file="e2output.xml" freq="60" speedThreshold="100" friendlyPos="x" id="e2det_1_100_A0A1_0" lane="A0A1_0" length="34.00000000000001" pos="-34.300000000000004"/>
    <laneAreaDetector file="e2output.xml" freq="60" speedThreshold="10" friendlyPos="x" id="e2det_2_10_A0A1_0" lane="A0A1_0" length="34.00000000000001" pos="-68.60000000000001"/>
    <laneAreaDetector file="e2output.xml" freq="60" speedThreshold="30" friendlyPos="x" id="e2det_2_30_A0A1_0" lane="A0A1_0" length="34.00000000000001" pos="-68.60000000000001"/>
    <laneAreaDetector file="e2output.xml" freq="60" speedThreshold="100" friendlyPos="x" id="e2det_2_100_A0A1_0" lane="A0A1_0" length="34.00000000000001" pos="-68.60000000000001"/>
    <laneAreaDetector file="e2output.xml" freq="60" speedThreshold="10" friendlyPos="x" id="e2det_0_10_A0A1_1" lane="A0A1_1" length="34.00000000000001" pos="0.0"/>
    <laneAreaDetector file="e2output.xml" freq="60" speedThreshold="30" friendlyPos="x" id="e2det_0_30_A0A1_1" lane="A0A1_1" length="34.00000000000001" pos="0.0"/>
    <laneAreaDetector file="e2output.xml" freq="60" speedThreshold="100" friendlyPos="x" id="e2det_0_100_A0A1_1" lane="A0A1_1" length="34.00000000000001" pos="0.0"/>
    <laneAreaDetector file="e2output.xml" freq="60" speedThreshold="10" friendlyPos="x" id="e2det_1_10_A0A1_1" lane="A0A1_1" length="34.00000000000001" pos="-34.300000000000004"/>
    <laneAreaDetector file="e2output.xml" freq="60" speedThreshold="30" friendlyPos="x" id="e2det_1_30_A0A1_1" lane="A0A1_1" length="34.00000000000001" pos="-34.300000000000004"/>
    <laneAreaDetector file="e2output.xml" freq="60" speedThreshold="100" friendlyPos="x" id="e2det_1_100_A0A1_1" lane="A0A1_1" length="34.00000000000001" pos="-34.300000000000004"/>
    <laneAreaDetector file="e2output.xml" freq="60" speedThreshold="10" friendlyPos="x" id="e2det_2_10_A0A1_1" lane="A0A1_1" length="34.00000000000001" pos="-68.60000000000001"/>
    <laneAreaDetector file="e2output.xml" freq="60" speedThreshold="30" friendlyPos="x" id="e2det_2_30_A0A1_1" lane="A0A1_1" length="34.00000000000001" pos="-68.60000000000001"/>
    <laneAreaDetector file="e2output.xml" freq="60" speedThreshold="100" friendlyPos="x" id="e2det_2_100_A0A1_1" lane="A0A1_1" length="34.00000000000001" pos="-68.60000000000001"/>
    <laneAreaDetector file="e2output.xml" freq="60" speedThreshold="10" friendlyPos="x" id="e2det_0_10_A2A1_0" lane="A2A1_0" length="32.66666666666667" pos="0.0"/>
    <laneAreaDetector file="e2output.xml" freq="60" speedThreshold="30" friendlyPos="x" id="e2det_0_30_A2A1_0" lane="A2A1_0" length="32.66666666666667" pos="0.0"/>
    <laneAreaDetector file="e2output.xml" freq="60" speedThreshold="100" friendlyPos="x" id="e2det_0_100_A2A1_0" lane="A2A1_0" length="32.66666666666667" pos="0.0"/>
    <laneAreaDetector file="e2output.xml" freq="60" speedThreshold="10" friendlyPos="x" id="e2det_1_10_A2A1_0" lane="A2A1_0" length="32.66666666666667" pos="-32.96666666666667"/>
    <laneAreaDetector file="e2output.xml" freq="60" speedThreshold="30" friendlyPos="x" id="e2det_1_30_A2A1_0" lane="A2A1_0" length="32.66666666666667" pos="-32.96666666666667"/>
    <laneAreaDetector file="e2output.xml" freq="60" speedThreshold="100" friendlyPos="x" id="e2det_1_100_A2A1_0" lane="A2A1_0" length="32.66666666666667" pos="-32.96666666666667"/>
    <laneAreaDetector file="e2output.xml" freq="60" speedThreshold="10" friendlyPos="x" id="e2det_2_10_A2A1_0" lane="A2A1_0" length="32.66666666666667" pos="-65.93333333333334"/>
    <laneAreaDetector file="e2output.xml" freq="60" speedThreshold="30" friendlyPos="x" id="e2det_2_30_A2A1_0" lane="A2A1_0" length="32.66666666666667" pos="-65.93333333333334"/>
    <laneAreaDetector file="e2output.xml" freq="60" speedThreshold="100" friendlyPos="x" id="e2det_2_100_A2A1_0" lane="A2A1_0" length="32.66666666666667" pos="-65.93333333333334"/>
    <laneAreaDetector file="e2output.xml" freq="60" speedThreshold="10" friendlyPos="x" id="e2det_0_10_A2A1_1" lane="A2A1_1" length="32.66666666666667" pos="0.0"/>
    <laneAreaDetector file="e2output.xml" freq="60" speedThreshold="30" friendlyPos="x" id="e2det_0_30_A2A1_1" lane="A2A1_1" length="32.66666666666667" pos="0.0"/>
    <laneAreaDetector file="e2output.xml" freq="60" speedThreshold="100" friendlyPos="x" id="e2det_0_100_A2A1_1" lane="A2A1_1" length="32.66666666666667" pos="0.0"/>
    <laneAreaDetector file="e2output.xml" freq="60" speedThreshold="10" friendlyPos="x" id="e2det_1_10_A2A1_1" lane="A2A1_1" length="32.66666666666667" pos="-32.96666666666667"/>
    <laneAreaDetector file="e2output.xml" freq="60" speedThreshold="30" friendlyPos="x" id="e2det_1_30_A2A1_1" lane="A2A1_1" length="32.66666666666667" pos="-32.96666666666667"/>
    <laneAreaDetector file="e2output.xml" freq="60" speedThreshold="100" friendlyPos="x" id="e2det_1_100_A2A1_1" lane="A2A1_1" length="32.66666666666667" pos="-32.96666666666667"/>
    <laneAreaDetector file="e2output.xml" freq="60" speedThreshold="10" friendlyPos="x" id="e2det_2_10_A2A1_1" lane="A2A1_1" length="32.66666666666667" pos="-65.93333333333334"/>
    <laneAreaDetector file="e2output.xml" freq="60" speedThreshold="30" friendlyPos="x" id="e2det_2_30_A2A1_1" lane="A2A1_1" length="32.66666666666667" pos="-65.93333333333334"/>
    <laneAreaDetector file="e2output.xml" freq="60" speedThreshold="100" friendlyPos="x" id="e2det_2_100_A2A1_1" lane="A2A1_1" length="32.66666666666667" pos="-65.93333333333334"/>
    <laneAreaDetector file="e2output.xml" freq="60" speedThreshold="10" friendlyPos="x" id="e2det_0_10_B1A1_0" lane="B1A1_0" length="59.33333333333333" pos="1.1379786002407855e-14"/>
    <laneAreaDetector file="e2output.xml" freq="60" speedThreshold="30" friendlyPos="x" id="e2det_0_30_B1A1_0" lane="B1A1_0" length="59.33333333333333" pos="1.1379786002407855e-14"/>
    <laneAreaDetector file="e2output.xml" freq="60" speedThreshold="100" friendlyPos="x" id="e2det_0_100_B1A1_0" lane="B1A1_0" length="59.33333333333333" pos="1.1379786002407855e-14"/>
    <laneAreaDetector file="e2output.xml" freq="60" speedThreshold="10" friendlyPos="x" id="e2det_1_10_B1A1_0" lane="B1A1_0" length="59.33333333333333" pos="-59.63333333333331"/>
    <laneAreaDetector file="e2output.xml" freq="60" speedThreshold="30" friendlyPos="x" id="e2det_1_30_B1A1_0" lane="B1A1_0" length="59.33333333333333" pos="-59.63333333333331"/>
    <laneAreaDetector file="e2output.xml" freq="60" speedThreshold="100" friendlyPos="x" id="e2det_1_100_B1A1_0" lane="B1A1_0" length="59.33333333333333" pos="-59.63333333333331"/>
    <laneAreaDetector file="e2output.xml" freq="60" speedThreshold="10" friendlyPos="x" id="e2det_2_10_B1A1_0" lane="B1A1_0" length="59.33333333333333" pos="-119.26666666666664"/>
    <laneAreaDetector file="e2output.xml" freq="60" speedThreshold="30" friendlyPos="x" id="e2det_2_30_B1A1_0" lane="B1A1_0" length="59.33333333333333" pos="-119.26666666666664"/>
    <laneAreaDetector file="e2output.xml" freq="60" speedThreshold="100" friendlyPos="x" id="e2det_2_100_B1A1_0" lane="B1A1_0" length="59.33333333333333" pos="-119.26666666666664"/>
    <laneAreaDetector file="e2output.xml" freq="60" speedThreshold="10" friendlyPos="x" id="e2det_0_10_B1A1_1" lane="B1A1_1" length="59.33333333333333" pos="1.1379786002407855e-14"/>
    <laneAreaDetector file="e2output.xml" freq="60" speedThreshold="30" friendlyPos="x" id="e2det_0_30_B1A1_1" lane="B1A1_1" length="59.33333333333333" pos="1.1379786002407855e-14"/>
    <laneAreaDetector file="e2output.xml" freq="60" speedThreshold="100" friendlyPos="x" id="e2det_0_100_B1A1_1" lane="B1A1_1" length="59.33333333333333" pos="1.1379786002407855e-14"/>
    <laneAreaDetector file="e2output.xml" freq="60" speedThreshold="10" friendlyPos="x" id="e2det_1_10_B1A1_1" lane="B1A1_1" length="59.33333333333333" pos="-59.63333333333331"/>
    <laneAreaDetector file="e2output.xml" freq="60" speedThreshold="30" friendlyPos="x" id="e2det_1_30_B1A1_1" lane="B1A1_1" length="59.33333333333333" pos="-59.63333333333331"/>
    <laneAreaDetector file="e2output.xml" freq="60" speedThreshold="100" friendlyPos="x" id="e2det_1_100_B1A1_1" lane="B1A1_1" length="59.33333333333333" pos="-59.63333333333331"/>
    <laneAreaDetector file="e2output.xml" freq="60" speedThreshold="10" friendlyPos="x" id="e2det_2_10_B1A1_1" lane="B1A1_1" length="59.33333333333333" pos="-119.26666666666664"/>
    <laneAreaDetector file="e2output.xml" freq="60" speedThreshold="30" friendlyPos="x" id="e2det_2_30_B1A1_1" lane="B1A1_1" length="59.33333333333333" pos="-119.26666666666664"/>
    <laneAreaDetector file="e2output.xml" freq="60" speedThreshold="100" friendlyPos="x" id="e2det_2_100_B1A1_1" lane="B1A1_1" length="59.33333333333333" pos="-119.26666666666664"/>
    <laneAreaDetector file="e2output.xml" freq="60" speedThreshold="10" friendlyPos="x" id="e2det_0_10_A0B0_0" lane="A0B0_0" length="60.666666666666664" pos="1.1379786002407855e-14"/>
    <laneAreaDetector file="e2output.xml" freq="60" speedThreshold="30" friendlyPos="x" id="e2det_0_30_A0B0_0" lane="A0B0_0" length="60.666666666666664" pos="1.1379786002407855e-14"/>
    <laneAreaDetector file="e2output.xml" freq="60" speedThreshold="100" friendlyPos="x" id="e2det_0_100_A0B0_0" lane="A0B0_0" length="60.666666666666664" pos="1.1379786002407855e-14"/>
    <laneAreaDetector file="e2output.xml" freq="60" speedThreshold="10" friendlyPos="x" id="e2det_1_10_A0B0_0" lane="A0B0_0" length="60.666666666666664" pos="-60.96666666666665"/>
    <laneAreaDetector file="e2output.xml" freq="60" speedThreshold="30" friendlyPos="x" id="e2det_1_30_A0B0_0" lane="A0B0_0" length="60.666666666666664" pos="-60.96666666666665"/>
    <laneAreaDetector file="e2output.xml" freq="60" speedThreshold="100" friendlyPos="x" id="e2det_1_100_A0B0_0" lane="A0B0_0" length="60.666666666666664" pos="-60.96666666666665"/>
    <laneAreaDetector file="e2output.xml" freq="60" speedThreshold="10" friendlyPos="x" id="e2det_2_10_A0B0_0" lane="A0B0_0" length="60.666666666666664" pos="-121.93333333333331"/>
    <laneAreaDetector file="e2output.xml" freq="60" speedThreshold="30" friendlyPos="x" id="e2det_2_30_A0B0_0" lane="A0B0_0" length="60.666666666666664" pos="-121.93333333333331"/>
    <laneAreaDetector file="e2output.xml" freq="60" speedThreshold="100" friendlyPos="x" id="e2det_2_100_A0B0_0" lane="A0B0_0" length="60.666666666666664" pos="-121.93333333333331"/>
    <laneAreaDetector file="e2output.xml" freq="60" speedThreshold="10" friendlyPos="x" id="e2det_0_10_A0B0_1" lane="A0B0_1" length="60.666666666666664" pos="1.1379786002407855e-14"/>
    <laneAreaDetector file="e2output.xml" freq="60" speedThreshold="30" friendlyPos="x" id="e2det_0_30_A0B0_1" lane="A0B0_1" length="60.666666666666664" pos="1.1379786002407855e-14"/>
    <laneAreaDetector file="e2output.xml" freq="60" speedThreshold="100" friendlyPos="x" id="e2det_0_100_A0B0_1" lane="A0B0_1" length="60.666666666666664" pos="1.1379786002407855e-14"/>
    <laneAreaDetector file="e2output.xml" freq="60" speedThreshold="10" friendlyPos="x" id="e2det_1_10_A0B0_1" lane="A0B0_1" length="60.666666666666664" pos="-60.96666666666665"/>
    <laneAreaDetector file="e2output.xml" freq="60" speedThreshold="30" friendlyPos="x" id="e2det_1_30_A0B0_1" lane="A0B0_1" length="60.666666666666664" pos="-60.96666666666665"/>
    <laneAreaDetector file="e2output.xml" freq="60" speedThreshold="100" friendlyPos="x" id="e2det_1_100_A0B0_1" lane="A0B0_1" length="60.666666666666664" pos="-60.96666666666665"/>
    <laneAreaDetector file="e2output.xml" freq="60" speedThreshold="10" friendlyPos="x" id="e2det_2_10_A0B0_1" lane="A0B0_1" length="60.666666666666664" pos="-121.93333333333331"/>
    <laneAreaDetector file="e2output.xml" freq="60" speedThreshold="30" friendlyPos="x" id="e2det_2_30_A0B0_1" lane="A0B0_1" length="60.666666666666664" pos="-121.93333333333331"/>
    <laneAreaDetector file="e2output.xml" freq="60" speedThreshold="100" friendlyPos="x" id="e2det_2_100_A0B0_1" lane="A0B0_1" length="60.666666666666664" pos="-121.93333333333331"/>
    <laneAreaDetector file="e2output.xml" freq="60" speedThreshold="10" friendlyPos="x" id="e2det_0_10_B1B0_0" lane="B1B0_0" length="32.66666666666667" pos="0.0"/>
    <laneAreaDetector file="e2output.xml" freq="60" speedThreshold="30" friendlyPos="x" id="e2det_0_30_B1B0_0" lane="B1B0_0" length="32.66666666666667" pos="0.0"/>
    <laneAreaDetector file="e2output.xml" freq="60" speedThreshold="100" friendlyPos="x" id="e2det_0_100_B1B0_0" lane="B1B0_0" length="32.66666666666667" pos="0.0"/>
    <laneAreaDetector file="e2output.xml" freq="60" speedThreshold="10" friendlyPos="x" id="e2det_1_10_B1B0_0" lane="B1B0_0" length="32.66666666666667" pos="-32.96666666666667"/>
    <laneAreaDetector file="e2output.xml" freq="60" speedThreshold="30" friendlyPos="x" id="e2det_1_30_B1B0_0" lane="B1B0_0" length="32.66666666666667" pos="-32.96666666666667"/>
    <laneAreaDetector file="e2output.xml" freq="60" speedThreshold="100" friendlyPos="x" id="e2det_1_100_B1B0_0" lane="B1B0_0" length="32.66666666666667" pos="-32.96666666666667"/>
    <laneAreaDetector file="e2output.xml" freq="60" speedThreshold="10" friendlyPos="x" id="e2det_2_10_B1B0_0" lane="B1B0_0" length="32.66666666666667" pos="-65.93333333333334"/>
    <laneAreaDetector file="e2output.xml" freq="60" speedThreshold="30" friendlyPos="x" id="e2det_2_30_B1B0_0" lane="B1B0_0" length="32.66666666666667" pos="-65.93333333333334"/>
    <laneAreaDetector file="e2output.xml" freq="60" speedThreshold="100" friendlyPos="x" id="e2det_2_100_B1B0_0" lane="B1B0_0" length="32.66666666666667" pos="-65.93333333333334"/>
    <laneAreaDetector file="e2output.xml" freq="60" speedThreshold="10" friendlyPos="x" id="e2det_0_10_B1B0_1" lane="B1B0_1" length="32.66666666666667" pos="0.0"/>
    <laneAreaDetector file="e2output.xml" freq="60" speedThreshold="30" friendlyPos="x" id="e2det_0_30_B1B0_1" lane="B1B0_1" length="32.66666666666667" pos="0.0"/>
    <laneAreaDetector file="e2output.xml" freq="60" speedThreshold="100" friendlyPos="x" id="e2det_0_100_B1B0_1" lane="B1B0_1" length="32.66666666666667" pos="0.0"/>
    <laneAreaDetector file="e2output.xml" freq="60" speedThreshold="10" friendlyPos="x" id="e2det_1_10_B1B0_1" lane="B1B0_1" length="32.66666666666667" pos="-32.96666666666667"/>
    <laneAreaDetector file="e2output.xml" freq="60" speedThreshold="30" friendlyPos="x" id="e2det_1_30_B1B0_1" lane="B1B0_1" length="32.66666666666667" pos="-32.96666666666667"/>
    <laneAreaDetector file="e2output.xml" freq="60" speedThreshold="100" friendlyPos="x" id="e2det_1_100_B1B0_1" lane="B1B0_1" length="32.66666666666667" pos="-32.96666666666667"/>
    <laneAreaDetector file="e2output.xml" freq="60" speedThreshold="10" friendlyPos="x" id="e2det_2_10_B1B0_1" lane="B1B0_1" length="32.66666666666667" pos="-65.93333333333334"/>
    <laneAreaDetector file="e2output.xml" freq="60" speedThreshold="30" friendlyPos="x" id="e2det_2_30_B1B0_1" lane="B1B0_1" length="32.66666666666667" pos="-65.93333333333334"/>
    <laneAreaDetector file="e2output.xml" freq="60" speedThreshold="100" friendlyPos="x" id="e2det_2_100_B1B0_1" lane="B1B0_1" length="32.66666666666667" pos="-65.93333333333334"/>
    <laneAreaDetector file="e2output.xml" freq="60" speedThreshold="10" friendlyPos="x" id="e2det_0_10_C0B0_0" lane="C0B0_0" length="59.33333333333333" pos="1.1379786002407855e-14"/>
    <laneAreaDetector file="e2output.xml" freq="60" speedThreshold="30" friendlyPos="x" id="e2det_0_30_C0B0_0" lane="C0B0_0" length="59.33333333333333" pos="1.1379786002407855e-14"/>
    <laneAreaDetector file="e2output.xml" freq="60" speedThreshold="100" friendlyPos="x" id="e2det_0_100_C0B0_0" lane="C0B0_0" length="59.33333333333333" pos="1.1379786002407855e-14"/>
    <laneAreaDetector file="e2output.xml" freq="60" speedThreshold="10" friendlyPos="x" id="e2det_1_10_C0B0_0" lane="C0B0_0" length="59.33333333333333" pos="-59.63333333333331"/>
    <laneAreaDetector file="e2output.xml" freq="60" speedThreshold="30" friendlyPos="x" id="e2det_1_30_C0B0_0" lane="C0B0_0" length="59.33333333333333" pos="-59.63333333333331"/>
    <laneAreaDetector file="e2output.xml" freq="60" speedThreshold="100" friendlyPos="x" id="e2det_1_100_C0B0_0" lane="C0B0_0" length="59.33333333333333" pos="-59.63333333333331"/>
    <laneAreaDetector file="e2output.xml" freq="60" speedThreshold="10" friendlyPos="x" id="e2det_2_10_C0B0_0" lane="C0B0_0" length="59.33333333333333" pos="-119.26666666666664"/>
    <laneAreaDetector file="e2output.xml" freq="60" speedThreshold="30" friendlyPos="x" id="e2det_2_30_C0B0_0" lane="C0B0_0" length="59.33333333333333" pos="-119.26666666666664"/>
    <laneAreaDetector file="e2output.xml" freq="60" speedThreshold="100" friendlyPos="x" id="e2det_2_100_C0B0_0" lane="C0B0_0" length="59.33333333333333" pos="-119.26666666666664"/>
    <laneAreaDetector file="e2output.xml" freq="60" speedThreshold="10" friendlyPos="x" id="e2det_0_10_C0B0_1" lane="C0B0_1" length="59.33333333333333" pos="1.1379786002407855e-14"/>
    <laneAreaDetector file="e2output.xml" freq="60" speedThreshold="30" friendlyPos="x" id="e2det_0_30_C0B0_1" lane="C0B0_1" length="59.33333333333333" pos="1.1379786002407855e-14"/>
    <laneAreaDetector file="e2output.xml" freq="60" speedThreshold="100" friendlyPos="x" id="e2det_0_100_C0B0_1" lane="C0B0_1" length="59.33333333333333" pos="1.1379786002407855e-14"/>
    <laneAreaDetector file="e2output.xml" freq="60" speedThreshold="10" friendlyPos="x" id="e2det_1_10_C0B0_1" lane="C0B0_1" length="59.33333333333333" pos="-59.63333333333331"/>
    <laneAreaDetector file="e2output.xml" freq="60" speedThreshold="30" friendlyPos="x" id="e2det_1_30_C0B0_1" lane="C0B0_1" length="59.33333333333333" pos="-59.63333333333331"/>
    <laneAreaDetector file="e2output.xml" freq="60" speedThreshold="100" friendlyPos="x" id="e2det_1_100_C0B0_1" lane="C0B0_1" length="59.33333333333333" pos="-59.63333333333331"/>
    <laneAreaDetector file="e2output.xml" freq="60" speedThreshold="10" friendlyPos="x" id="e2det_2_10_C0B0_1" lane="C0B0_1" length="59.33333333333333" pos="-119.26666666666664"/>
    <laneAreaDetector file="e2output.xml" freq="60" speedThreshold="30" friendlyPos="x" id="e2det_2_30_C0B0_1" lane="C0B0_1" length="59.33333333333333" pos="-119.26666666666664"/>
    <laneAreaDetector file="e2output.xml" freq="60" speedThreshold="100" friendlyPos="x" id="e2det_2_100_C0B0_1" lane="C0B0_1" length="59.33333333333333" pos="-119.26666666666664"/>
    <laneAreaDetector file="e2output.xml" freq="60" speedThreshold="10" friendlyPos="x" id="e2det_0_10_A1A0_0" lane="A1A0_0" length="34.00000000000001" pos="0.0"/>
    <laneAreaDetector file="e2output.xml" freq="60" speedThreshold="30" friendlyPos="x" id="e2det_0_30_A1A0_0" lane="A1A0_0" length="34.00000000000001" pos="0.0"/>
    <laneAreaDetector file="e2output.xml" freq="60" speedThreshold="100" friendlyPos="x" id="e2det_0_100_A1A0_0" lane="A1A0_0" length="34.00000000000001" pos="0.0"/>
    <laneAreaDetector file="e2output.xml" freq="60" speedThreshold="10" friendlyPos="x" id="e2det_1_10_A1A0_0" lane="A1A0_0" length="34.00000000000001" pos="-34.300000000000004"/>
    <laneAreaDetector file="e2output.xml" freq="60" speedThreshold="30" friendlyPos="x" id="e2det_1_30_A1A0_0" lane="A1A0_0" length="34.00000000000001" pos="-34.300000000000004"/>
    <laneAreaDetector file="e2output.xml" freq="60" speedThreshold="100" friendlyPos="x" id="e2det_1_100_A1A0_0" lane="A1A0_0" length="34.00000000000001" pos="-34.300000000000004"/>
    <laneAreaDetector file="e2output.xml" freq="60" speedThreshold="10" friendlyPos="x" id="e2det_2_10_A1A0_0" lane="A1A0_0" length="34.00000000000001" pos="-68.60000000000001"/>
    <laneAreaDetector file="e2output.xml" freq="60" speedThreshold="30" friendlyPos="x" id="e2det_2_30_A1A0_0" lane="A1A0_0" length="34.00000000000001" pos="-68.60000000000001"/>
    <laneAreaDetector file="e2output.xml" freq="60" speedThreshold="100" friendlyPos="x" id="e2det_2_100_A1A0_0" lane="A1A0_0" length="34.00000000000001" pos="-68.60000000000001"/>
    <laneAreaDetector file="e2output.xml" freq="60" speedThreshold="10" friendlyPos="x" id="e2det_0_10_A1A0_1" lane="A1A0_1" length="34.00000000000001" pos="0.0"/>
    <laneAreaDetector file="e2output.xml" freq="60" speedThreshold="30" friendlyPos="x" id="e2det_0_30_A1A0_1" lane="A1A0_1" length="34.00000000000001" pos="0.0"/>
    <laneAreaDetector file="e2output.xml" freq="60" speedThreshold="100" friendlyPos="x" id="e2det_0_100_A1A0_1" lane="A1A0_1" length="34.00000000000001" pos="0.0"/>
    <laneAreaDetector file="e2output.xml" freq="60" speedThreshold="10" friendlyPos="x" id="e2det_1_10_A1A0_1" lane="A1A0_1" length="34.00000000000001" pos="-34.300000000000004"/>
    <laneAreaDetector file="e2output.xml" freq="60" speedThreshold="30" friendlyPos="x" id="e2det_1_30_A1A0_1" lane="A1A0_1" length="34.00000000000001" pos="-34.300000000000004"/>
    <laneAreaDetector file="e2output.xml" freq="60" speedThreshold="100" friendlyPos="x" id="e2det_1_100_A1A0_1" lane="A1A0_1" length="34.00000000000001" pos="-34.300000000000004"/>
    <laneAreaDetector file="e2output.xml" freq="60" speedThreshold="10" friendlyPos="x" id="e2det_2_10_A1A0_1" lane="A1A0_1" length="34.00000000000001" pos="-68.60000000000001"/>
    <laneAreaDetector file="e2output.xml" freq="60" speedThreshold="30" friendlyPos="x" id="e2det_2_30_A1A0_1" lane="A1A0_1" length="34.00000000000001" pos="-68.60000000000001"/>
    <laneAreaDetector file="e2output.xml" freq="60" speedThreshold="100" friendlyPos="x" id="e2det_2_100_A1A0_1" lane="A1A0_1" length="34.00000000000001" pos="-68.60000000000001"/>
    <laneAreaDetector file="e2output.xml" freq="60" speedThreshold="10" friendlyPos="x" id="e2det_0_10_B0A0_0" lane="B0A0_0" length="60.666666666666664" pos="1.1379786002407855e-14"/>
    <laneAreaDetector file="e2output.xml" freq="60" speedThreshold="30" friendlyPos="x" id="e2det_0_30_B0A0_0" lane="B0A0_0" length="60.666666666666664" pos="1.1379786002407855e-14"/>
    <laneAreaDetector file="e2output.xml" freq="60" speedThreshold="100" friendlyPos="x" id="e2det_0_100_B0A0_0" lane="B0A0_0" length="60.666666666666664" pos="1.1379786002407855e-14"/>
    <laneAreaDetector file="e2output.xml" freq="60" speedThreshold="10" friendlyPos="x" id="e2det_1_10_B0A0_0" lane="B0A0_0" length="60.666666666666664" pos="-60.96666666666665"/>
    <laneAreaDetector file="e2output.xml" freq="60" speedThreshold="30" friendlyPos="x" id="e2det_1_30_B0A0_0" lane="B0A0_0" length="60.666666666666664" pos="-60.96666666666665"/>
    <laneAreaDetector file="e2output.xml" freq="60" speedThreshold="100" friendlyPos="x" id="e2det_1_100_B0A0_0" lane="B0A0_0" length="60.666666666666664" pos="-60.96666666666665"/>
    <laneAreaDetector file="e2output.xml" freq="60" speedThreshold="10" friendlyPos="x" id="e2det_2_10_B0A0_0" lane="B0A0_0" length="60.666666666666664" pos="-121.93333333333331"/>
    <laneAreaDetector file="e2output.xml" freq="60" speedThreshold="30" friendlyPos="x" id="e2det_2_30_B0A0_0" lane="B0A0_0" length="60.666666666666664" pos="-121.93333333333331"/>
    <laneAreaDetector file="e2output.xml" freq="60" speedThreshold="100" friendlyPos="x" id="e2det_2_100_B0A0_0" lane="B0A0_0" length="60.666666666666664" pos="-121.93333333333331"/>
    <laneAreaDetector file="e2output.xml" freq="60" speedThreshold="10" friendlyPos="x" id="e2det_0_10_B0A0_1" lane="B0A0_1" length="60.666666666666664" pos="1.1379786002407855e-14"/>
    <laneAreaDetector file="e2output.xml" freq="60" speedThreshold="30" friendlyPos="x" id="e2det_0_30_B0A0_1" lane="B0A0_1" length="60.666666666666664" pos="1.1379786002407855e-14"/>
    <laneAreaDetector file="e2output.xml" freq="60" speedThreshold="100" friendlyPos="x" id="e2det_0_100_B0A0_1" lane="B0A0_1" length="60.666666666666664" pos="1.1379786002407855e-14"/>
    <laneAreaDetector file="e2output.xml" freq="60" speedThreshold="10" friendlyPos="x" id="e2det_1_10_B0A0_1" lane="B0A0_1" length="60.666666666666664" pos="-60.96666666666665"/>
    <laneAreaDetector file="e2output.xml" freq="60" speedThreshold="30" friendlyPos="x" id="e2det_1_30_B0A0_1" lane="B0A0_1" length="60.666666666666664" pos="-60.96666666666665"/>
    <laneAreaDetector file="e2output.xml" freq="60" speedThreshold="100" friendlyPos="x" id="e2det_1_100_B0A0_1" lane="B0A0_1" length="60.666666666666664" pos="-60.96666666666665"/>
    <laneAreaDetector file="e2output.xml" freq="60" speedThreshold="10" friendlyPos="x" id="e2det_2_10_B0A0_1" lane="B0A0_1" length="60.666666666666664" pos="-121.93333333333331"/>
    <laneAreaDetector file="e2output.xml" freq="60" speedThreshold="30" friendlyPos="x" id="e2det_2_30_B0A0_1" lane="B0A0_1" length="60.666666666666664" pos="-121.93333333333331"/>
    <laneAreaDetector file="e2output.xml" freq="60" speedThreshold="100" friendlyPos="x" id="e2det_2_100_B0A0_1" lane="B0A0_1" length="60.666666666666664" pos="-121.93333333333331"/>
    <laneAreaDetector file="e2output.xml" freq="60" speedThreshold="10" friendlyPos="x" id="e2det_0_10_A1A2_0" lane="A1A2_0" length="32.66666666666667" pos="0.0"/>
    <laneAreaDetector file="e2output.xml" freq="60" speedThreshold="30" friendlyPos="x" id="e2det_0_30_A1A2_0" lane="A1A2_0" length="32.66666666666667" pos="0.0"/>
    <laneAreaDetector file="e2output.xml" freq="60" speedThreshold="100" friendlyPos="x" id="e2det_0_100_A1A2_0" lane="A1A2_0" length="32.66666666666667" pos="0.0"/>
    <laneAreaDetector file="e2output.xml" freq="60" speedThreshold="10" friendlyPos="x" id="e2det_1_10_A1A2_0" lane="A1A2_0" length="32.66666666666667" pos="-32.96666666666667"/>
    <laneAreaDetector file="e2output.xml" freq="60" speedThreshold="30" friendlyPos="x" id="e2det_1_30_A1A2_0" lane="A1A2_0" length="32.66666666666667" pos="-32.96666666666667"/>
    <laneAreaDetector file="e2output.xml" freq="60" speedThreshold="100" friendlyPos="x" id="e2det_1_100_A1A2_0" lane="A1A2_0" length="32.66666666666667" pos="-32.96666666666667"/>
    <laneAreaDetector file="e2output.xml" freq="60" speedThreshold="10" friendlyPos="x" id="e2det_2_10_A1A2_0" lane="A1A2_0" length="32.66666666666667" pos="-65.93333333333334"/>
    <laneAreaDetector file="e2output.xml" freq="60" speedThreshold="30" friendlyPos="x" id="e2det_2_30_A1A2_0" lane="A1A2_0" length="32.66666666666667" pos="-65.93333333333334"/>
    <laneAreaDetector file="e2output.xml" freq="60" speedThreshold="100" friendlyPos="x" id="e2det_2_100_A1A2_0" lane="A1A2_0" length="32.66666666666667" pos="-65.93333333333334"/>
    <laneAreaDetector file="e2output.xml" freq="60" speedThreshold="10" friendlyPos="x" id="e2det_0_10_A1A2_1" lane="A1A2_1" length="32.66666666666667" pos="0.0"/>
    <laneAreaDetector file="e2output.xml" freq="60" speedThreshold="30" friendlyPos="x" id="e2det_0_30_A1A2_1" lane="A1A2_1" length="32.66666666666667" pos="0.0"/>
    <laneAreaDetector file="e2output.xml" freq="60" speedThreshold="100" friendlyPos="x" id="e2det_0_100_A1A2_1" lane="A1A2_1" length="32.66666666666667" pos="0.0"/>
    <laneAreaDetector file="e2output.xml" freq="60" speedThreshold="10" friendlyPos="x" id="e2det_1_10_A1A2_1" lane="A1A2_1" length="32.66666666666667" pos="-32.96666666666667"/>
    <laneAreaDetector file="e2output.xml" freq="60" speedThreshold="30" friendlyPos="x" id="e2det_1_30_A1A2_1" lane="A1A2_1" length="32.66666666666667" pos="-32.96666666666667"/>
    <laneAreaDetector file="e2output.xml" freq="60" speedThreshold="100" friendlyPos="x" id="e2det_1_100_A1A2_1" lane="A1A2_1" length="32.66666666666667" pos="-32.96666666666667"/>
    <laneAreaDetector file="e2output.xml" freq="60" speedThreshold="10" friendlyPos="x" id="e2det_2_10_A1A2_1" lane="A1A2_1" length="32.66666666666667" pos="-65.93333333333334"/>
    <laneAreaDetector file="e2output.xml" freq="60" speedThreshold="30" friendlyPos="x" id="e2det_2_30_A1A2_1" lane="A1A2_1" length="32.66666666666667" pos="-65.93333333333334"/>
    <laneAreaDetector file="e2output.xml" freq="60" speedThreshold="100" friendlyPos="x" id="e2det_2_100_A1A2_1" lane="A1A2_1" length="32.66666666666667" pos="-65.93333333333334"/>
    <laneAreaDetector file="e2output.xml" freq="60" speedThreshold="10" friendlyPos="x" id="e2det_0_10_A3A2_0" lane="A3A2_0" length="34.00000000000001" pos="0.0"/>
    <laneAreaDetector file="e2output.xml" freq="60" speedThreshold="30" friendlyPos="x" id="e2det_0_30_A3A2_0" lane="A3A2_0" length="34.00000000000001" pos="0.0"/>
    <laneAreaDetector file="e2output.xml" freq="60" speedThreshold="100" friendlyPos="x" id="e2det_0_100_A3A2_0" lane="A3A2_0" length="34.00000000000001" pos="0.0"/>
    <laneAreaDetector file="e2output.xml" freq="60" speedThreshold="10" friendlyPos="x" id="e2det_1_10_A3A2_0" lane="A3A2_0" length="34.00000000000001" pos="-34.300000000000004"/>
    <laneAreaDetector file="e2output.xml" freq="60" speedThreshold="30" friendlyPos="x" id="e2det_1_30_A3A2_0" lane="A3A2_0" length="34.00000000000001" pos="-34.300000000000004"/>