<?xml version="1.0" encoding="UTF-8"?>

<!-- generated on 2021-06-27 23:49:34 by Eclipse SUMO netgenerate Version 1.9.2
<configuration xmlns:xsi="http://www.w3.org/2001/XMLSchema-instance" xsi:noNamespaceSchemaLocation="http://sumo.dlr.de/xsd/netgenerateConfiguration.xsd">

    <grid_network>
        <grid value="true"/>
        <grid.x-number value="4"/>
        <grid.y-number value="4"/>
        <grid.x-length value="200"/>
        <grid.y-length value="120"/>
    </grid_network>

    <input>
        <type-files value="edge.typ.xml"/>
    </input>

    <output>
        <output-file value="grid.net.xml"/>
    </output>

    <building_defaults>
        <default.type value="two_lane"/>
        <default-junction-type value="traffic_light"/>
    </building_defaults>

    <junctions>
        <no-turnarounds value="true"/>
    </junctions>

</configuration>
-->

<net version="1.9" junctionCornerDetail="5" limitTurnSpeed="5.50" xmlns:xsi="http://www.w3.org/2001/XMLSchema-instance" xsi:noNamespaceSchemaLocation="http://sumo.dlr.de/xsd/net_file.xsd">

    <location netOffset="0.00,0.00" convBoundary="0.00,0.00,600.00,360.00" origBoundary="0.00,0.00,600.00,360.00" projParameter="!"/>

    <type id="two_lane" numLanes="2" speed="44.00"/>

    <edge id=":A0_0" function="internal">
        <lane id=":A0_0_0" index="0" speed="8.96" length="18.06" shape="-4.80,6.40 -4.10,1.50 -2.00,-2.00 1.50,-4.10 6.40,-4.80"/>
        <lane id=":A0_0_1" index="1" speed="7.66" length="12.90" shape="-1.60,6.40 -1.10,2.90 0.40,0.40 2.90,-1.10 6.40,-1.60"/>
    </edge>
    <edge id=":A0_2" function="internal">
        <lane id=":A0_2_0" index="0" speed="3.90" length="2.58" shape="6.40,4.80 5.70,4.90 5.20,5.20 4.90,5.70 4.80,6.40"/>
        <lane id=":A0_2_1" index="1" speed="6.08" length="7.74" shape="6.40,1.60 4.30,1.90 2.80,2.80 1.90,4.30 1.60,6.40"/>
    </edge>
    <edge id=":A1_0" function="internal">
        <lane id=":A1_0_0" index="0" speed="44.00" length="20.80" shape="-4.80,130.40 -4.80,109.60"/>
        <lane id=":A1_0_1" index="1" speed="44.00" length="20.80" shape="-1.60,130.40 -1.60,109.60"/>
    </edge>
    <edge id=":A1_2" function="internal">
        <lane id=":A1_2_0" index="0" speed="9.26" length="6.96" shape="-1.60,130.40 -0.85,125.15 -0.00,123.73"/>
    </edge>
    <edge id=":A1_9" function="internal">
        <lane id=":A1_9_0" index="0" speed="9.26" length="12.40" shape="-0.00,123.73 1.40,121.40 5.15,119.15 10.40,118.40"/>
    </edge>
    <edge id=":A1_3" function="internal">
        <lane id=":A1_3_0" index="0" speed="6.51" length="9.03" shape="10.40,124.80 7.95,125.15 6.20,126.20 5.15,127.95 4.80,130.40"/>
        <lane id=":A1_3_1" index="1" speed="8.00" length="14.19" shape="10.40,121.60 6.55,122.15 3.80,123.80 2.15,126.55 1.60,130.40"/>
    </edge>
    <edge id=":A1_5" function="internal">
        <lane id=":A1_5_0" index="0" speed="9.26" length="19.35" shape="10.40,121.60 5.15,120.85 1.40,118.60 -0.85,114.85 -1.60,109.60"/>
    </edge>
    <edge id=":A1_6" function="internal">
        <lane id=":A1_6_0" index="0" speed="6.51" length="9.03" shape="4.80,109.60 5.15,112.05 6.20,113.80 7.95,114.85 10.40,115.20"/>
    </edge>
    <edge id=":A1_7" function="internal">
        <lane id=":A1_7_0" index="0" speed="44.00" length="20.80" shape="4.80,109.60 4.80,130.40"/>
        <lane id=":A1_7_1" index="1" speed="44.00" length="20.80" shape="1.60,109.60 1.60,130.40"/>
    </edge>
    <edge id=":A2_0" function="internal">
        <lane id=":A2_0_0" index="0" speed="44.00" length="20.80" shape="-4.80,250.40 -4.80,229.60"/>
        <lane id=":A2_0_1" index="1" speed="44.00" length="20.80" shape="-1.60,250.40 -1.60,229.60"/>
    </edge>
    <edge id=":A2_2" function="internal">
        <lane id=":A2_2_0" index="0" speed="9.26" length="6.96" shape="-1.60,250.40 -0.85,245.15 -0.00,243.73"/>
    </edge>
    <edge id=":A2_9" function="internal">
        <lane id=":A2_9_0" index="0" speed="9.26" length="12.40" shape="-0.00,243.73 1.40,241.40 5.15,239.15 10.40,238.40"/>
    </edge>
    <edge id=":A2_3" function="internal">
        <lane id=":A2_3_0" index="0" speed="6.51" length="9.03" shape="10.40,244.80 7.95,245.15 6.20,246.20 5.15,247.95 4.80,250.40"/>
        <lane id=":A2_3_1" index="1" speed="8.00" length="14.19" shape="10.40,241.60 6.55,242.15 3.80,243.80 2.15,246.55 1.60,250.40"/>
    </edge>
    <edge id=":A2_5" function="internal">
        <lane id=":A2_5_0" index="0" speed="9.26" length="19.35" shape="10.40,241.60 5.15,240.85 1.40,238.60 -0.85,234.85 -1.60,229.60"/>
    </edge>
    <edge id=":A2_6" function="internal">
        <lane id=":A2_6_0" index="0" speed="6.51" length="9.03" shape="4.80,229.60 5.15,232.05 6.20,233.80 7.95,234.85 10.40,235.20"/>
    </edge>
    <edge id=":A2_7" function="internal">
        <lane id=":A2_7_0" index="0" speed="44.00" length="20.80" shape="4.80,229.60 4.80,250.40"/>
        <lane id=":A2_7_1" index="1" speed="44.00" length="20.80" shape="1.60,229.60 1.60,250.40"/>
    </edge>
    <edge id=":A3_0" function="internal">
        <lane id=":A3_0_0" index="0" speed="8.96" length="18.06" shape="6.40,364.80 1.50,364.10 -2.00,362.00 -4.10,358.50 -4.80,353.60"/>
        <lane id=":A3_0_1" index="1" speed="7.66" length="12.90" shape="6.40,361.60 2.90,361.10 0.40,359.60 -1.10,357.10 -1.60,353.60"/>
    </edge>
    <edge id=":A3_2" function="internal">
        <lane id=":A3_2_0" index="0" speed="3.90" length="2.58" shape="4.80,353.60 4.90,354.30 5.20,354.80 5.70,355.10 6.40,355.20"/>
        <lane id=":A3_2_1" index="1" speed="6.08" length="7.74" shape="1.60,353.60 1.90,355.70 2.80,357.20 4.30,358.10 6.40,358.40"/>
    </edge>
    <edge id=":B0_0" function="internal">
        <lane id=":B0_0_0" index="0" speed="6.51" length="9.03" shape="195.20,10.40 194.85,7.95 193.80,6.20 192.05,5.15 189.60,4.80"/>
        <lane id=":B0_0_1" index="1" speed="8.00" length="14.19" shape="198.40,10.40 197.85,6.55 196.20,3.80 193.45,2.15 189.60,1.60"/>
    </edge>
    <edge id=":B0_2" function="internal">
        <lane id=":B0_2_0" index="0" speed="9.26" length="19.35" shape="198.40,10.40 199.15,5.15 201.40,1.40 205.15,-0.85 210.40,-1.60"/>
    </edge>
    <edge id=":B0_3" function="internal">
        <lane id=":B0_3_0" index="0" speed="6.51" length="9.03" shape="210.40,4.80 207.95,5.15 206.20,6.20 205.15,7.95 204.80,10.40"/>
    </edge>
    <edge id=":B0_4" function="internal">
        <lane id=":B0_4_0" index="0" speed="44.00" length="20.80" shape="210.40,4.80 189.60,4.80"/>
        <lane id=":B0_4_1" index="1" speed="44.00" length="20.80" shape="210.40,1.60 189.60,1.60"/>
    </edge>
    <edge id=":B0_6" function="internal">
        <lane id=":B0_6_0" index="0" speed="44.00" length="20.80" shape="189.60,-4.80 210.40,-4.80"/>
        <lane id=":B0_6_1" index="1" speed="44.00" length="20.80" shape="189.60,-1.60 210.40,-1.60"/>
    </edge>
    <edge id=":B0_8" function="internal">
        <lane id=":B0_8_0" index="0" speed="9.26" length="6.96" shape="189.60,-1.60 194.85,-0.85 196.27,-0.00"/>
    </edge>
    <edge id=":B0_9" function="internal">
        <lane id=":B0_9_0" index="0" speed="9.26" length="12.40" shape="196.27,-0.00 198.60,1.40 200.85,5.15 201.60,10.40"/>
    </edge>
    <edge id=":B1_0" function="internal">
        <lane id=":B1_0_0" index="0" speed="6.51" length="9.03" shape="195.20,130.40 194.85,127.95 193.80,126.20 192.05,125.15 189.60,124.80"/>
    </edge>
    <edge id=":B1_1" function="internal">
        <lane id=":B1_1_0" index="0" speed="44.00" length="20.80" shape="195.20,130.40 195.20,109.60"/>
        <lane id=":B1_1_1" index="1" speed="44.00" length="20.80" shape="198.40,130.40 198.40,109.60"/>
    </edge>
    <edge id=":B1_3" function="internal">
        <lane id=":B1_3_0" index="0" speed="9.26" length="6.96" shape="198.40,130.40 199.15,125.15 200.00,123.73"/>
    </edge>
    <edge id=":B1_16" function="internal">
        <lane id=":B1_16_0" index="0" speed="9.26" length="12.40" shape="200.00,123.73 201.40,121.40 205.15,119.15 210.40,118.40"/>
    </edge>
    <edge id=":B1_4" function="internal">
        <lane id=":B1_4_0" index="0" speed="6.51" length="9.03" shape="210.40,124.80 207.95,125.15 206.20,126.20 205.15,127.95 204.80,130.40"/>
    </edge>
    <edge id=":B1_5" function="internal">
        <lane id=":B1_5_0" index="0" speed="44.00" length="20.80" shape="210.40,124.80 189.60,124.80"/>
        <lane id=":B1_5_1" index="1" speed="44.00" length="20.80" shape="210.40,121.60 189.60,121.60"/>
    </edge>
    <edge id=":B1_7" function="internal">
        <lane id=":B1_7_0" index="0" speed="9.26" length="6.96" shape="210.40,121.60 205.15,120.85 203.73,120.00"/>
    </edge>
    <edge id=":B1_17" function="internal">
        <lane id=":B1_17_0" index="0" speed="9.26" length="12.40" shape="203.73,120.00 201.40,118.60 199.15,114.85 198.40,109.60"/>
    </edge>
    <edge id=":B1_8" function="internal">
        <lane id=":B1_8_0" index="0" speed="6.51" length="9.03" shape="204.80,109.60 205.15,112.05 206.20,113.80 207.95,114.85 210.40,115.20"/>
    </edge>
    <edge id=":B1_9" function="internal">
        <lane id=":B1_9_0" index="0" speed="44.00" length="20.80" shape="204.80,109.60 204.80,130.40"/>
        <lane id=":B1_9_1" index="1" speed="44.00" length="20.80" shape="201.60,109.60 201.60,130.40"/>
    </edge>
    <edge id=":B1_11" function="internal">
        <lane id=":B1_11_0" index="0" speed="9.26" length="6.96" shape="201.60,109.60 200.85,114.85 200.00,116.27"/>
    </edge>
    <edge id=":B1_18" function="internal">
        <lane id=":B1_18_0" index="0" speed="9.26" length="12.40" shape="200.00,116.27 198.60,118.60 194.85,120.85 189.60,121.60"/>
    </edge>
    <edge id=":B1_12" function="internal">
        <lane id=":B1_12_0" index="0" speed="6.51" length="9.03" shape="189.60,115.20 192.05,114.85 193.80,113.80 194.85,112.05 195.20,109.60"/>
    </edge>
    <edge id=":B1_13" function="internal">
        <lane id=":B1_13_0" index="0" speed="44.00" length="20.80" shape="189.60,115.20 210.40,115.20"/>
        <lane id=":B1_13_1" index="1" speed="44.00" length="20.80" shape="189.60,118.40 210.40,118.40"/>
    </edge>
    <edge id=":B1_15" function="internal">
        <lane id=":B1_15_0" index="0" speed="9.26" length="6.96" shape="189.60,118.40 194.85,119.15 196.27,120.00"/>
    </edge>
    <edge id=":B1_19" function="internal">
        <lane id=":B1_19_0" index="0" speed="9.26" length="12.40" shape="196.27,120.00 198.60,121.40 200.85,125.15 201.60,130.40"/>
    </edge>
    <edge id=":B2_0" function="internal">
        <lane id=":B2_0_0" index="0" speed="6.51" length="9.03" shape="195.20,250.40 194.85,247.95 193.80,246.20 192.05,245.15 189.60,244.80"/>
    </edge>
    <edge id=":B2_1" function="internal">
        <lane id=":B2_1_0" index="0" speed="44.00" length="20.80" shape="195.20,250.40 195.20,229.60"/>
        <lane id=":B2_1_1" index="1" speed="44.00" length="20.80" shape="198.40,250.40 198.40,229.60"/>
    </edge>
    <edge id=":B2_3" function="internal">
        <lane id=":B2_3_0" index="0" speed="9.26" length="6.96" shape="198.40,250.40 199.15,245.15 200.00,243.73"/>
    </edge>
    <edge id=":B2_16" function="internal">
        <lane id=":B2_16_0" index="0" speed="9.26" length="12.40" shape="200.00,243.73 201.40,241.40 205.15,239.15 210.40,238.40"/>
    </edge>
    <edge id=":B2_4" function="internal">
        <lane id=":B2_4_0" index="0" speed="6.51" length="9.03" shape="210.40,244.80 207.95,245.15 206.20,246.20 205.15,247.95 204.80,250.40"/>
    </edge>
    <edge id=":B2_5" function="internal">
        <lane id=":B2_5_0" index="0" speed="44.00" length="20.80" shape="210.40,244.80 189.60,244.80"/>
        <lane id=":B2_5_1" index="1" speed="44.00" length="20.80" shape="210.40,241.60 189.60,241.60"/>
    </edge>
    <edge id=":B2_7" function="internal">
        <lane id=":B2_7_0" index="0" speed="9.26" length="6.96" shape="210.40,241.60 205.15,240.85 203.73,240.00"/>
    </edge>
    <edge id=":B2_17" function="internal">
        <lane id=":B2_17_0" index="0" speed="9.26" length="12.40" shape="203.73,240.00 201.40,238.60 199.15,234.85 198.40,229.60"/>
    </edge>
    <edge id=":B2_8" function="internal">
        <lane id=":B2_8_0" index="0" speed="6.51" length="9.03" shape="204.80,229.60 205.15,232.05 206.20,233.80 207.95,234.85 210.40,235.20"/>
    </edge>
    <edge id=":B2_9" function="internal">
        <lane id=":B2_9_0" index="0" speed="44.00" length="20.80" shape="204.80,229.60 204.80,250.40"/>
        <lane id=":B2_9_1" index="1" speed="44.00" length="20.80" shape="201.60,229.60 201.60,250.40"/>
    </edge>
    <edge id=":B2_11" function="internal">
        <lane id=":B2_11_0" index="0" speed="9.26" length="6.96" shape="201.60,229.60 200.85,234.85 200.00,236.27"/>
    </edge>
    <edge id=":B2_18" function="internal">
        <lane id=":B2_18_0" index="0" speed="9.26" length="12.40" shape="200.00,236.27 198.60,238.60 194.85,240.85 189.60,241.60"/>
    </edge>
    <edge id=":B2_12" function="internal">
        <lane id=":B2_12_0" index="0" speed="6.51" length="9.03" shape="189.60,235.20 192.05,234.85 193.80,233.80 194.85,232.05 195.20,229.60"/>
    </edge>
    <edge id=":B2_13" function="internal">
        <lane id=":B2_13_0" index="0" speed="44.00" length="20.80" shape="189.60,235.20 210.40,235.20"/>
        <lane id=":B2_13_1" index="1" speed="44.00" length="20.80" shape="189.60,238.40 210.40,238.40"/>
    </edge>
    <edge id=":B2_15" function="internal">
        <lane id=":B2_15_0" index="0" speed="9.26" length="6.96" shape="189.60,238.40 194.85,239.15 196.27,240.00"/>
    </edge>
    <edge id=":B2_19" function="internal">
        <lane id=":B2_19_0" index="0" speed="9.26" length="12.40" shape="196.27,240.00 198.60,241.40 200.85,245.15 201.60,250.40"/>
    </edge>
    <edge id=":B3_0" function="internal">
        <lane id=":B3_0_0" index="0" speed="44.00" length="20.80" shape="210.40,364.80 189.60,364.80"/>
        <lane id=":B3_0_1" index="1" speed="44.00" length="20.80" shape="210.40,361.60 189.60,361.60"/>
    </edge>
    <edge id=":B3_2" function="internal">
        <lane id=":B3_2_0" index="0" speed="9.26" length="6.96" shape="210.40,361.60 205.15,360.85 203.73,360.00"/>
    </edge>
    <edge id=":B3_9" function="internal">
        <lane id=":B3_9_0" index="0" speed="9.26" length="12.40" shape="203.73,360.00 201.40,358.60 199.15,354.85 198.40,349.60"/>
    </edge>
    <edge id=":B3_3" function="internal">
        <lane id=":B3_3_0" index="0" speed="6.51" length="9.03" shape="204.80,349.60 205.15,352.05 206.20,353.80 207.95,354.85 210.40,355.20"/>
        <lane id=":B3_3_1" index="1" speed="8.00" length="14.19" shape="201.60,349.60 202.15,353.45 203.80,356.20 206.55,357.85 210.40,358.40"/>
    </edge>
    <edge id=":B3_5" function="internal">
        <lane id=":B3_5_0" index="0" speed="9.26" length="19.35" shape="201.60,349.60 200.85,354.85 198.60,358.60 194.85,360.85 189.60,361.60"/>
    </edge>
    <edge id=":B3_6" function="internal">
        <lane id=":B3_6_0" index="0" speed="6.51" length="9.03" shape="189.60,355.20 192.05,354.85 193.80,353.80 194.85,352.05 195.20,349.60"/>
    </edge>
    <edge id=":B3_7" function="internal">
        <lane id=":B3_7_0" index="0" speed="44.00" length="20.80" shape="189.60,355.20 210.40,355.20"/>
        <lane id=":B3_7_1" index="1" speed="44.00" length="20.80" shape="189.60,358.40 210.40,358.40"/>
    </edge>
    <edge id=":C0_0" function="internal">
        <lane id=":C0_0_0" index="0" speed="6.51" length="9.03" shape="395.20,10.40 394.85,7.95 393.80,6.20 392.05,5.15 389.60,4.80"/>
        <lane id=":C0_0_1" index="1" speed="8.00" length="14.19" shape="398.40,10.40 397.85,6.55 396.20,3.80 393.45,2.15 389.60,1.60"/>
    </edge>
    <edge id=":C0_2" function="internal">
        <lane id=":C0_2_0" index="0" speed="9.26" length="19.35" shape="398.40,10.40 399.15,5.15 401.40,1.40 405.15,-0.85 410.40,-1.60"/>
    </edge>
    <edge id=":C0_3" function="internal">
        <lane id=":C0_3_0" index="0" speed="6.51" length="9.03" shape="410.40,4.80 407.95,5.15 406.20,6.20 405.15,7.95 404.80,10.40"/>
    </edge>
    <edge id=":C0_4" function="internal">
        <lane id=":C0_4_0" index="0" speed="44.00" length="20.80" shape="410.40,4.80 389.60,4.80"/>
        <lane id=":C0_4_1" index="1" speed="44.00" length="20.80" shape="410.40,1.60 389.60,1.60"/>
    </edge>
    <edge id=":C0_6" function="internal">
        <lane id=":C0_6_0" index="0" speed="44.00" length="20.80" shape="389.60,-4.80 410.40,-4.80"/>
        <lane id=":C0_6_1" index="1" speed="44.00" length="20.80" shape="389.60,-1.60 410.40,-1.60"/>
    </edge>
    <edge id=":C0_8" function="internal">
        <lane id=":C0_8_0" index="0" speed="9.26" length="6.96" shape="389.60,-1.60 394.85,-0.85 396.27,0.00"/>
    </edge>
    <edge id=":C0_9" function="internal">
        <lane id=":C0_9_0" index="0" speed="9.26" length="12.40" shape="396.27,0.00 398.60,1.40 400.85,5.15 401.60,10.40"/>
    </edge>
    <edge id=":C1_0" function="internal">
        <lane id=":C1_0_0" index="0" speed="6.51" length="9.03" shape="395.20,130.40 394.85,127.95 393.80,126.20 392.05,125.15 389.60,124.80"/>
    </edge>
    <edge id=":C1_1" function="internal">
        <lane id=":C1_1_0" index="0" speed="44.00" length="20.80" shape="395.20,130.40 395.20,109.60"/>
        <lane id=":C1_1_1" index="1" speed="44.00" length="20.80" shape="398.40,130.40 398.40,109.60"/>
    </edge>
    <edge id=":C1_3" function="internal">
        <lane id=":C1_3_0" index="0" speed="9.26" length="6.96" shape="398.40,130.40 399.15,125.15 400.00,123.73"/>
    </edge>
    <edge id=":C1_16" function="internal">
        <lane id=":C1_16_0" index="0" speed="9.26" length="12.40" shape="400.00,123.73 401.40,121.40 405.15,119.15 410.40,118.40"/>
    </edge>
    <edge id=":C1_4" function="internal">
        <lane id=":C1_4_0" index="0" speed="6.51" length="9.03" shape="410.40,124.80 407.95,125.15 406.20,126.20 405.15,127.95 404.80,130.40"/>
    </edge>
    <edge id=":C1_5" function="internal">
        <lane id=":C1_5_0" index="0" speed="44.00" length="20.80" shape="410.40,124.80 389.60,124.80"/>
        <lane id=":C1_5_1" index="1" speed="44.00" length="20.80" shape="410.40,121.60 389.60,121.60"/>
    </edge>
    <edge id=":C1_7" function="internal">
        <lane id=":C1_7_0" index="0" speed="9.26" length="6.96" shape="410.40,121.60 405.15,120.85 403.73,120.00"/>
    </edge>
    <edge id=":C1_17" function="internal">
        <lane id=":C1_17_0" index="0" speed="9.26" length="12.40" shape="403.73,120.00 401.40,118.60 399.15,114.85 398.40,109.60"/>
    </edge>
    <edge id=":C1_8" function="internal">
        <lane id=":C1_8_0" index="0" speed="6.51" length="9.03" shape="404.80,109.60 405.15,112.05 406.20,113.80 407.95,114.85 410.40,115.20"/>
    </edge>
    <edge id=":C1_9" function="internal">
        <lane id=":C1_9_0" index="0" speed="44.00" length="20.80" shape="404.80,109.60 404.80,130.40"/>
        <lane id=":C1_9_1" index="1" speed="44.00" length="20.80" shape="401.60,109.60 401.60,130.40"/>
    </edge>
    <edge id=":C1_11" function="internal">
        <lane id=":C1_11_0" index="0" speed="9.26" length="6.96" shape="401.60,109.60 400.85,114.85 400.00,116.27"/>
    </edge>
    <edge id=":C1_18" function="internal">
        <lane id=":C1_18_0" index="0" speed="9.26" length="12.40" shape="400.00,116.27 398.60,118.60 394.85,120.85 389.60,121.60"/>
    </edge>
    <edge id=":C1_12" function="internal">
        <lane id=":C1_12_0" index="0" speed="6.51" length="9.03" shape="389.60,115.20 392.05,114.85 393.80,113.80 394.85,112.05 395.20,109.60"/>
    </edge>
    <edge id=":C1_13" function="internal">
        <lane id=":C1_13_0" index="0" speed="44.00" length="20.80" shape="389.60,115.20 410.40,115.20"/>
        <lane id=":C1_13_1" index="1" speed="44.00" length="20.80" shape="389.60,118.40 410.40,118.40"/>
    </edge>
    <edge id=":C1_15" function="internal">
        <lane id=":C1_15_0" index="0" speed="9.26" length="6.96" shape="389.60,118.40 394.85,119.15 396.27,120.00"/>
    </edge>
    <edge id=":C1_19" function="internal">
        <lane id=":C1_19_0" index="0" speed="9.26" length="12.40" shape="396.27,120.00 398.60,121.40 400.85,125.15 401.60,130.40"/>
    </edge>
    <edge id=":C2_0" function="internal">
        <lane id=":C2_0_0" index="0" speed="6.51" length="9.03" shape="395.20,250.40 394.85,247.95 393.80,246.20 392.05,245.15 389.60,244.80"/>
    </edge>
    <edge id=":C2_1" function="internal">
        <lane id=":C2_1_0" index="0" speed="44.00" length="20.80" shape="395.20,250.40 395.20,229.60"/>
        <lane id=":C2_1_1" index="1" speed="44.00" length="20.80" shape="398.40,250.40 398.40,229.60"/>
    </edge>
    <edge id=":C2_3" function="internal">
        <lane id=":C2_3_0" index="0" speed="9.26" length="6.96" shape="398.40,250.40 399.15,245.15 400.00,243.73"/>
    </edge>
    <edge id=":C2_16" function="internal">
        <lane id=":C2_16_0" index="0" speed="9.26" length="12.40" shape="400.00,243.73 401.40,241.40 405.15,239.15 410.40,238.40"/>
    </edge>
    <edge id=":C2_4" function="internal">
        <lane id=":C2_4_0" index="0" speed="6.51" length="9.03" shape="410.40,244.80 407.95,245.15 406.20,246.20 405.15,247.95 404.80,250.40"/>
    </edge>
    <edge id=":C2_5" function="internal">
        <lane id=":C2_5_0" index="0" speed="44.00" length="20.80" shape="410.40,244.80 389.60,244.80"/>
        <lane id=":C2_5_1" index="1" speed="44.00" length="20.80" shape="410.40,241.60 389.60,241.60"/>
    </edge>
    <edge id=":C2_7" function="internal">
        <lane id=":C2_7_0" index="0" speed="9.26" length="6.96" shape="410.40,241.60 405.15,240.85 403.73,240.00"/>
    </edge>
    <edge id=":C2_17" function="internal">
        <lane id=":C2_17_0" index="0" speed="9.26" length="12.40" shape="403.73,240.00 401.40,238.60 399.15,234.85 398.40,229.60"/>
    </edge>
    <edge id=":C2_8" function="internal">
        <lane id=":C2_8_0" index="0" speed="6.51" length="9.03" shape="404.80,229.60 405.15,232.05 406.20,233.80 407.95,234.85 410.40,235.20"/>
    </edge>
    <edge id=":C2_9" function="internal">
        <lane id=":C2_9_0" index="0" speed="44.00" length="20.80" shape="404.80,229.60 404.80,250.40"/>
        <lane id=":C2_9_1" index="1" speed="44.00" length="20.80" shape="401.60,229.60 401.60,250.40"/>
    </edge>
    <edge id=":C2_11" function="internal">
        <lane id=":C2_11_0" index="0" speed="9.26" length="6.96" shape="401.60,229.60 400.85,234.85 400.00,236.27"/>
    </edge>
    <edge id=":C2_18" function="internal">
        <lane id=":C2_18_0" index="0" speed="9.26" length="12.40" shape="400.00,236.27 398.60,238.60 394.85,240.85 389.60,241.60"/>
    </edge>
    <edge id=":C2_12" function="internal">
        <lane id=":C2_12_0" index="0" speed="6.51" length="9.03" shape="389.60,235.20 392.05,234.85 393.80,233.80 394.85,232.05 395.20,229.60"/>
    </edge>
    <edge id=":C2_13" function="internal">
        <lane id=":C2_13_0" index="0" speed="44.00" length="20.80" shape="389.60,235.20 410.40,235.20"/>
        <lane id=":C2_13_1" index="1" speed="44.00" length="20.80" shape="389.60,238.40 410.40,238.40"/>
    </edge>
    <edge id=":C2_15" function="internal">
        <lane id=":C2_15_0" index="0" speed="9.26" length="6.96" shape="389.60,238.40 394.85,239.15 396.27,240.00"/>
    </edge>
    <edge id=":C2_19" function="internal">
        <lane id=":C2_19_0" index="0" speed="9.26" length="12.40" shape="396.27,240.00 398.60,241.40 400.85,245.15 401.60,250.40"/>
    </edge>
    <edge id=":C3_0" function="internal">
        <lane id=":C3_0_0" index="0" speed="44.00" length="20.80" shape="410.40,364.80 389.60,364.80"/>
        <lane id=":C3_0_1" index="1" speed="44.00" length="20.80" shape="410.40,361.60 389.60,361.60"/>
    </edge>
    <edge id=":C3_2" function="internal">
        <lane id=":C3_2_0" index="0" speed="9.26" length="6.96" shape="410.40,361.60 405.15,360.85 403.73,360.00"/>
    </edge>
    <edge id=":C3_9" function="internal">
        <lane id=":C3_9_0" index="0" speed="9.26" length="12.40" shape="403.73,360.00 401.40,358.60 399.15,354.85 398.40,349.60"/>
    </edge>
    <edge id=":C3_3" function="internal">
        <lane id=":C3_3_0" index="0" speed="6.51" length="9.03" shape="404.80,349.60 405.15,352.05 406.20,353.80 407.95,354.85 410.40,355.20"/>
        <lane id=":C3_3_1" index="1" speed="8.00" length="14.19" shape="401.60,349.60 402.15,353.45 403.80,356.20 406.55,357.85 410.40,358.40"/>
    </edge>
    <edge id=":C3_5" function="internal">
        <lane id=":C3_5_0" index="0" speed="9.26" length="19.35" shape="401.60,349.60 400.85,354.85 398.60,358.60 394.85,360.85 389.60,361.60"/>
    </edge>
    <edge id=":C3_6" function="internal">
        <lane id=":C3_6_0" index="0" speed="6.51" length="9.03" shape="389.60,355.20 392.05,354.85 393.80,353.80 394.85,352.05 395.20,349.60"/>
    </edge>
    <edge id=":C3_7" function="internal">
        <lane id=":C3_7_0" index="0" speed="44.00" length="20.80" shape="389.60,355.20 410.40,355.20"/>
        <lane id=":C3_7_1" index="1" speed="44.00" length="20.80" shape="389.60,358.40 410.40,358.40"/>
    </edge>
    <edge id=":D0_0" function="internal">
        <lane id=":D0_0_0" index="0" speed="3.90" length="2.58" shape="595.20,6.40 595.10,5.70 594.80,5.20 594.30,4.90 593.60,4.80"/>
        <lane id=":D0_0_1" index="1" speed="6.08" length="7.74" shape="598.40,6.40 598.10,4.30 597.20,2.80 595.70,1.90 593.60,1.60"/>
    </edge>
    <edge id=":D0_2" function="internal">
        <lane id=":D0_2_0" index="0" speed="8.96" length="18.06" shape="593.60,-4.80 598.50,-4.10 602.00,-2.00 604.10,1.50 604.80,6.40"/>
        <lane id=":D0_2_1" index="1" speed="7.66" length="12.90" shape="593.60,-1.60 597.10,-1.10 599.60,0.40 601.10,2.90 601.60,6.40"/>
    </edge>
    <edge id=":D1_0" function="internal">
        <lane id=":D1_0_0" index="0" speed="6.51" length="9.03" shape="595.20,130.40 594.85,127.95 593.80,126.20 592.05,125.15 589.60,124.80"/>
    </edge>
    <edge id=":D1_1" function="internal">
        <lane id=":D1_1_0" index="0" speed="44.00" length="20.80" shape="595.20,130.40 595.20,109.60"/>
        <lane id=":D1_1_1" index="1" speed="44.00" length="20.80" shape="598.40,130.40 598.40,109.60"/>
    </edge>
    <edge id=":D1_3" function="internal">
        <lane id=":D1_3_0" index="0" speed="44.00" length="20.80" shape="604.80,109.60 604.80,130.40"/>
        <lane id=":D1_3_1" index="1" speed="44.00" length="20.80" shape="601.60,109.60 601.60,130.40"/>
    </edge>
    <edge id=":D1_5" function="internal">
        <lane id=":D1_5_0" index="0" speed="9.26" length="6.96" shape="601.60,109.60 600.85,114.85 600.00,116.27"/>
    </edge>
    <edge id=":D1_9" function="internal">
        <lane id=":D1_9_0" index="0" speed="9.26" length="12.40" shape="600.00,116.27 598.60,118.60 594.85,120.85 589.60,121.60"/>
    </edge>
    <edge id=":D1_6" function="internal">
        <lane id=":D1_6_0" index="0" speed="6.51" length="9.03" shape="589.60,115.20 592.05,114.85 593.80,113.80 594.85,112.05 595.20,109.60"/>
        <lane id=":D1_6_1" index="1" speed="8.00" length="14.19" shape="589.60,118.40 593.45,117.85 596.20,116.20 597.85,113.45 598.40,109.60"/>
    </edge>
    <edge id=":D1_8" function="internal">
        <lane id=":D1_8_0" index="0" speed="9.26" length="19.35" shape="589.60,118.40 594.85,119.15 598.60,121.40 600.85,125.15 601.60,130.40"/>
    </edge>
    <edge id=":D2_0" function="internal">
        <lane id=":D2_0_0" index="0" speed="6.51" length="9.03" shape="595.20,250.40 594.85,247.95 593.80,246.20 592.05,245.15 589.60,244.80"/>
    </edge>
    <edge id=":D2_1" function="internal">
        <lane id=":D2_1_0" index="0" speed="44.00" length="20.80" shape="595.20,250.40 595.20,229.60"/>
        <lane id=":D2_1_1" index="1" speed="44.00" length="20.80" shape="598.40,250.40 598.40,229.60"/>
    </edge>
    <edge id=":D2_3" function="internal">
        <lane id=":D2_3_0" index="0" speed="44.00" length="20.80" shape="604.80,229.60 604.80,250.40"/>
        <lane id=":D2_3_1" index="1" speed="44.00" length="20.80" shape="601.60,229.60 601.60,250.40"/>
    </edge>
    <edge id=":D2_5" function="internal">
        <lane id=":D2_5_0" index="0" speed="9.26" length="6.96" shape="601.60,229.60 600.85,234.85 600.00,236.27"/>
    </edge>
    <edge id=":D2_9" function="internal">
        <lane id=":D2_9_0" index="0" speed="9.26" length="12.40" shape="600.00,236.27 598.60,238.60 594.85,240.85 589.60,241.60"/>
    </edge>
    <edge id=":D2_6" function="internal">
        <lane id=":D2_6_0" index="0" speed="6.51" length="9.03" shape="589.60,235.20 592.05,234.85 593.80,233.80 594.85,232.05 595.20,229.60"/>
        <lane id=":D2_6_1" index="1" speed="8.00" length="14.19" shape="589.60,238.40 593.45,237.85 596.20,236.20 597.85,233.45 598.40,229.60"/>
    </edge>
    <edge id=":D2_8" function="internal">
        <lane id=":D2_8_0" index="0" speed="9.26" length="19.35" shape="589.60,238.40 594.85,239.15 598.60,241.40 600.85,245.15 601.60,250.40"/>
    </edge>
    <edge id=":D3_0" function="internal">
        <lane id=":D3_0_0" index="0" speed="8.96" length="18.06" shape="604.80,353.60 604.10,358.50 602.00,362.00 598.50,364.10 593.60,364.80"/>
        <lane id=":D3_0_1" index="1" speed="7.66" length="12.90" shape="601.60,353.60 601.10,357.10 599.60,359.60 597.10,361.10 593.60,361.60"/>
    </edge>
    <edge id=":D3_2" function="internal">
        <lane id=":D3_2_0" index="0" speed="3.90" length="2.58" shape="593.60,355.20 594.30,355.10 594.80,354.80 595.10,354.30 595.20,353.60"/>
        <lane id=":D3_2_1" index="1" speed="6.08" length="7.74" shape="593.60,358.40 595.70,358.10 597.20,357.20 598.10,355.70 598.40,353.60"/>
    </edge>

    <edge id="A0A1" from="A0" to="A1" priority="-1" type="two_lane">
        <lane id="A0A1_0" index="0" speed="44.00" length="103.20" shape="4.80,6.40 4.80,109.60"/>
        <lane id="A0A1_1" index="1" speed="44.00" length="103.20" shape="1.60,6.40 1.60,109.60"/>
    </edge>