<?xml version="1.0" encoding="UTF-8"?>

<!-- generated on 2021-06-12 21:42:43 by Eclipse SUMO netgenerate Version 1.9.2
<configuration xmlns:xsi="http://www.w3.org/2001/XMLSchema-instance" xsi:noNamespaceSchemaLocation="http://sumo.dlr.de/xsd/netgenerateConfiguration.xsd">

    <random_network>
        <rand value="true"/>
        <rand.iterations value="200"/>
        <rand.neighbor-dist1 value="1"/>
        <rand.neighbor-dist2 value="5"/>
        <rand.neighbor-dist3 value="10"/>
        <rand.neighbor-dist4 value="20"/>
        <rand.neighbor-dist5 value="0"/>
        <rand.neighbor-dist6 value="0"/>
        <rand.grid value="true"/>
    </random_network>

    <input>
        <type-files value="edge.typ.xml"/>
    </input>

    <output>
        <output-file value="rand.net.xml"/>
    </output>

    <building_defaults>
        <default.type value="two_lane"/>
        <default-junction-type value="traffic_light"/>
    </building_defaults>

    <junctions>
        <no-turnarounds value="true"/>
    </junctions>

</configuration>
-->

<net version="1.9" junctionCornerDetail="5" limitTurnSpeed="5.50" xmlns:xsi="http://www.w3.org/2001/XMLSchema-instance" xsi:noNamespaceSchemaLocation="http://sumo.dlr.de/xsd/net_file.xsd">

    <location netOffset="1300.00,1500.00" convBoundary="0.00,0.00,2400.00,3100.00" origBoundary="-1300.00,-1500.00,1100.00,1600.00" projParameter="!"/>

    <type id="two_lane" numLanes="2" speed="44.00"/>

    <edge id=":1_0" function="internal">
        <lane id=":1_0_0" index="0" speed="6.51" length="9.03" shape="1295.20,1510.40 1294.85,1507.95 1293.80,1506.20 1292.05,1505.15 1289.60,1504.80"/>
    </edge>
    <edge id=":1_1" function="internal">
        <lane id=":1_1_0" index="0" speed="28.95" length="20.80" shape="1295.20,1510.40 1295.20,1489.60"/>
        <lane id=":1_1_1" index="1" speed="28.95" length="20.80" shape="1298.40,1510.40 1298.40,1489.60"/>
    </edge>
    <edge id=":1_3" function="internal">
        <lane id=":1_3_0" index="0" speed="9.26" length="6.96" shape="1298.40,1510.40 1299.15,1505.15 1300.00,1503.73"/>
    </edge>
    <edge id=":1_16" function="internal">
        <lane id=":1_16_0" index="0" speed="9.26" length="12.40" shape="1300.00,1503.73 1301.40,1501.40 1305.15,1499.15 1310.40,1498.40"/>
    </edge>
    <edge id=":1_4" function="internal">
        <lane id=":1_4_0" index="0" speed="6.51" length="9.03" shape="1310.40,1504.80 1307.95,1505.15 1306.20,1506.20 1305.15,1507.95 1304.80,1510.40"/>
    </edge>
    <edge id=":1_5" function="internal">
        <lane id=":1_5_0" index="0" speed="28.95" length="20.80" shape="1310.40,1504.80 1289.60,1504.80"/>
        <lane id=":1_5_1" index="1" speed="28.95" length="20.80" shape="1310.40,1501.60 1289.60,1501.60"/>
    </edge>
    <edge id=":1_7" function="internal">
        <lane id=":1_7_0" index="0" speed="9.26" length="6.96" shape="1310.40,1501.60 1305.15,1500.85 1303.73,1500.00"/>
    </edge>
    <edge id=":1_17" function="internal">
        <lane id=":1_17_0" index="0" speed="9.26" length="12.40" shape="1303.73,1500.00 1301.40,1498.60 1299.15,1494.85 1298.40,1489.60"/>
    </edge>
    <edge id=":1_8" function="internal">
        <lane id=":1_8_0" index="0" speed="6.51" length="9.03" shape="1304.80,1489.60 1305.15,1492.05 1306.20,1493.80 1307.95,1494.85 1310.40,1495.20"/>
    </edge>
    <edge id=":1_9" function="internal">
        <lane id=":1_9_0" index="0" speed="28.95" length="20.80" shape="1304.80,1489.60 1304.80,1510.40"/>
        <lane id=":1_9_1" index="1" speed="28.95" length="20.80" shape="1301.60,1489.60 1301.60,1510.40"/>
    </edge>
    <edge id=":1_11" function="internal">
        <lane id=":1_11_0" index="0" speed="9.26" length="6.96" shape="1301.60,1489.60 1300.85,1494.85 1300.00,1496.27"/>
    </edge>
    <edge id=":1_18" function="internal">
        <lane id=":1_18_0" index="0" speed="9.26" length="12.40" shape="1300.00,1496.27 1298.60,1498.60 1294.85,1500.85 1289.60,1501.60"/>
    </edge>
    <edge id=":1_12" function="internal">
        <lane id=":1_12_0" index="0" speed="6.51" length="9.03" shape="1289.60,1495.20 1292.05,1494.85 1293.80,1493.80 1294.85,1492.05 1295.20,1489.60"/>
    </edge>
    <edge id=":1_13" function="internal">
        <lane id=":1_13_0" index="0" speed="28.95" length="20.80" shape="1289.60,1495.20 1310.40,1495.20"/>
        <lane id=":1_13_1" index="1" speed="28.95" length="20.80" shape="1289.60,1498.40 1310.40,1498.40"/>
    </edge>
    <edge id=":1_15" function="internal">
        <lane id=":1_15_0" index="0" speed="9.26" length="6.96" shape="1289.60,1498.40 1294.85,1499.15 1296.27,1500.00"/>
    </edge>
    <edge id=":1_19" function="internal">
        <lane id=":1_19_0" index="0" speed="9.26" length="12.40" shape="1296.27,1500.00 1298.60,1501.40 1300.85,1505.15 1301.60,1510.40"/>
    </edge>
    <edge id=":10_0" function="internal">
        <lane id=":10_0_0" index="0" speed="6.51" length="9.03" shape="1195.20,1510.40 1194.85,1507.95 1193.80,1506.20 1192.05,1505.15 1189.60,1504.80"/>
    </edge>
    <edge id=":10_1" function="internal">
        <lane id=":10_1_0" index="0" speed="13.89" length="20.80" shape="1195.20,1510.40 1195.20,1489.60"/>
        <lane id=":10_1_1" index="1" speed="13.89" length="20.80" shape="1198.40,1510.40 1198.40,1489.60"/>
    </edge>
    <edge id=":10_3" function="internal">
        <lane id=":10_3_0" index="0" speed="9.26" length="6.96" shape="1198.40,1510.40 1199.15,1505.15 1200.00,1503.73"/>
    </edge>
    <edge id=":10_16" function="internal">
        <lane id=":10_16_0" index="0" speed="9.26" length="12.40" shape="1200.00,1503.73 1201.40,1501.40 1205.15,1499.15 1210.40,1498.40"/>
    </edge>
    <edge id=":10_4" function="internal">
        <lane id=":10_4_0" index="0" speed="6.51" length="9.03" shape="1210.40,1504.80 1207.95,1505.15 1206.20,1506.20 1205.15,1507.95 1204.80,1510.40"/>
    </edge>
    <edge id=":10_5" function="internal">
        <lane id=":10_5_0" index="0" speed="44.00" length="20.80" shape="1210.40,1504.80 1189.60,1504.80"/>
        <lane id=":10_5_1" index="1" speed="44.00" length="20.80" shape="1210.40,1501.60 1189.60,1501.60"/>
    </edge>
    <edge id=":10_7" function="internal">
        <lane id=":10_7_0" index="0" speed="9.26" length="6.96" shape="1210.40,1501.60 1205.15,1500.85 1203.73,1500.00"/>
    </edge>
    <edge id=":10_17" function="internal">
        <lane id=":10_17_0" index="0" speed="9.26" length="12.40" shape="1203.73,1500.00 1201.40,1498.60 1199.15,1494.85 1198.40,1489.60"/>
    </edge>
    <edge id=":10_8" function="internal">
        <lane id=":10_8_0" index="0" speed="6.51" length="9.03" shape="1204.80,1489.60 1205.15,1492.05 1206.20,1493.80 1207.95,1494.85 1210.40,1495.20"/>
    </edge>
    <edge id=":10_9" function="internal">
        <lane id=":10_9_0" index="0" speed="44.00" length="20.80" shape="1204.80,1489.60 1204.80,1510.40"/>
        <lane id=":10_9_1" index="1" speed="44.00" length="20.80" shape="1201.60,1489.60 1201.60,1510.40"/>
    </edge>
    <edge id=":10_11" function="internal">
        <lane id=":10_11_0" index="0" speed="9.26" length="6.96" shape="1201.60,1489.60 1200.85,1494.85 1200.00,1496.27"/>
    </edge>
    <edge id=":10_18" function="internal">
        <lane id=":10_18_0" index="0" speed="9.26" length="12.40" shape="1200.00,1496.27 1198.60,1498.60 1194.85,1500.85 1189.60,1501.60"/>
    </edge>
    <edge id=":10_12" function="internal">
        <lane id=":10_12_0" index="0" speed="6.51" length="9.03" shape="1189.60,1495.20 1192.05,1494.85 1193.80,1493.80 1194.85,1492.05 1195.20,1489.60"/>
    </edge>
    <edge id=":10_13" function="internal">
        <lane id=":10_13_0" index="0" speed="13.89" length="20.80" shape="1189.60,1495.20 1210.40,1495.20"/>
        <lane id=":10_13_1" index="1" speed="13.89" length="20.80" shape="1189.60,1498.40 1210.40,1498.40"/>
    </edge>
    <edge id=":10_15" function="internal">
        <lane id=":10_15_0" index="0" speed="9.26" length="6.96" shape="1189.60,1498.40 1194.85,1499.15 1196.27,1500.00"/>
    </edge>
    <edge id=":10_19" function="internal">
        <lane id=":10_19_0" index="0" speed="9.26" length="12.40" shape="1196.27,1500.00 1198.60,1501.40 1200.85,1505.15 1201.60,1510.40"/>
    </edge>
    <edge id=":1004_0" function="internal">
        <lane id=":1004_0_0" index="0" speed="6.51" length="9.03" shape="1295.20,810.40 1294.85,807.95 1293.80,806.20 1292.05,805.15 1289.60,804.80"/>
    </edge>
    <edge id=":1004_1" function="internal">
        <lane id=":1004_1_0" index="0" speed="44.00" length="24.76" shape="1295.20,810.40 1295.20,785.64"/>
        <lane id=":1004_1_1" index="1" speed="44.00" length="24.76" shape="1298.40,810.40 1298.40,785.64"/>
    </edge>
    <edge id=":1004_3" function="internal">
        <lane id=":1004_3_0" index="0" speed="12.69" length="7.06" shape="1298.40,810.40 1299.26,804.99 1300.00,803.59"/>
    </edge>
    <edge id=":1004_16" function="internal">
        <lane id=":1004_16_0" index="0" speed="12.69" length="17.02" shape="1300.00,803.59 1301.83,800.14 1306.12,795.86 1312.12,792.15"/>
    </edge>
    <edge id=":1004_4" function="internal">
        <lane id=":1004_4_0" index="0" speed="10.72" length="16.99" shape="1314.99,797.87 1310.53,800.57 1307.35,803.55 1305.44,806.83 1304.80,810.40"/>
    </edge>
    <edge id=":1004_5" function="internal">
        <lane id=":1004_5_0" index="0" speed="27.00" length="25.86" shape="1314.99,797.87 1308.65,800.84 1302.69,803.01 1296.53,804.35 1289.60,804.80"/>
        <lane id=":1004_5_1" index="1" speed="26.25" length="25.86" shape="1313.56,795.01 1307.45,797.93 1301.97,799.98 1296.30,801.20 1289.60,801.60"/>
    </edge>
    <edge id=":1004_7" function="internal">
        <lane id=":1004_7_0" index="0" speed="8.81" length="8.46" shape="1313.56,795.01 1306.92,797.27 1305.49,797.02"/>
    </edge>
    <edge id=":1004_17" function="internal">
        <lane id=":1004_17_0" index="0" speed="8.81" length="15.15" shape="1305.49,797.02 1302.19,796.46 1299.35,792.58 1298.40,785.64"/>
    </edge>
    <edge id=":1004_8" function="internal">
        <lane id=":1004_8_0" index="0" speed="5.74" length="9.18" shape="1304.80,785.64 1305.17,788.34 1306.27,789.85 1308.11,790.16 1310.69,789.29"/>
    </edge>
    <edge id=":1004_9" function="internal">
        <lane id=":1004_9_0" index="0" speed="13.89" length="24.76" shape="1304.80,785.64 1304.80,810.40"/>
        <lane id=":1004_9_1" index="1" speed="13.89" length="24.76" shape="1301.60,785.64 1301.60,810.40"/>
    </edge>
    <edge id=":1004_11" function="internal">
        <lane id=":1004_11_0" index="0" speed="9.97" length="9.09" shape="1301.60,785.64 1300.85,792.63 1300.00,794.51"/>
    </edge>
    <edge id=":1004_18" function="internal">
        <lane id=":1004_18_0" index="0" speed="9.97" length="13.54" shape="1300.00,794.51 1298.60,797.61 1294.85,800.60 1289.60,801.60"/>
    </edge>
    <edge id=":1004_12" function="internal">
        <lane id=":1004_12_0" index="0" speed="7.51" length="12.39" shape="1289.60,795.20 1292.05,794.60 1293.80,792.81 1294.85,789.83 1295.20,785.64"/>
    </edge>
    <edge id=":1004_13" function="internal">
        <lane id=":1004_13_0" index="0" speed="24.69" length="22.95" shape="1289.60,795.20 1295.86,794.90 1300.54,793.92 1305.03,792.10 1310.69,789.29"/>
        <lane id=":1004_13_1" index="1" speed="25.48" length="22.95" shape="1289.60,798.40 1296.08,798.05 1301.26,796.95 1306.24,795.01 1312.12,792.15"/>
    </edge>
    <edge id=":1004_15" function="internal">
        <lane id=":1004_15_0" index="0" speed="9.26" length="6.25" shape="1289.60,798.40 1294.85,799.15 1295.66,799.64"/>
    </edge>
    <edge id=":1004_19" function="internal">
        <lane id=":1004_19_0" index="0" speed="9.26" length="13.11" shape="1295.66,799.64 1298.60,801.40 1300.85,805.15 1301.60,810.40"/>
    </edge>
    <edge id=":102_0" function="internal">
        <lane id=":102_0_0" index="0" speed="6.51" length="9.03" shape="1295.20,1810.40 1294.85,1807.95 1293.80,1806.20 1292.05,1805.15 1289.60,1804.80"/>
    </edge>
    <edge id=":102_1" function="internal">
        <lane id=":102_1_0" index="0" speed="13.89" length="20.80" shape="1295.20,1810.40 1295.20,1789.60"/>
        <lane id=":102_1_1" index="1" speed="13.89" length="20.80" shape="1298.40,1810.40 1298.40,1789.60"/>
    </edge>
    <edge id=":102_3" function="internal">
        <lane id=":102_3_0" index="0" speed="9.26" length="6.96" shape="1298.40,1810.40 1299.15,1805.15 1300.00,1803.73"/>
    </edge>
    <edge id=":102_16" function="internal">
        <lane id=":102_16_0" index="0" speed="9.26" length="12.40" shape="1300.00,1803.73 1301.40,1801.40 1305.15,1799.15 1310.40,1798.40"/>
    </edge>
    <edge id=":102_4" function="internal">
        <lane id=":102_4_0" index="0" speed="6.51" length="9.03" shape="1310.40,1804.80 1307.95,1805.15 1306.20,1806.20 1305.15,1807.95 1304.80,1810.40"/>
    </edge>
    <edge id=":102_5" function="internal">
        <lane id=":102_5_0" index="0" speed="28.95" length="20.80" shape="1310.40,1804.80 1289.60,1804.80"/>
        <lane id=":102_5_1" index="1" speed="28.95" length="20.80" shape="1310.40,1801.60 1289.60,1801.60"/>
    </edge>
    <edge id=":102_7" function="internal">
        <lane id=":102_7_0" index="0" speed="9.26" length="6.96" shape="1310.40,1801.60 1305.15,1800.85 1303.73,1800.00"/>
    </edge>
    <edge id=":102_17" function="internal">
        <lane id=":102_17_0" index="0" speed="9.26" length="12.40" shape="1303.73,1800.00 1301.40,1798.60 1299.15,1794.85 1298.40,1789.60"/>
    </edge>
    <edge id=":102_8" function="internal">
        <lane id=":102_8_0" index="0" speed="6.51" length="9.03" shape="1304.80,1789.60 1305.15,1792.05 1306.20,1793.80 1307.95,1794.85 1310.40,1795.20"/>
    </edge>
    <edge id=":102_9" function="internal">
        <lane id=":102_9_0" index="0" speed="44.00" length="20.80" shape="1304.80,1789.60 1304.80,1810.40"/>
        <lane id=":102_9_1" index="1" speed="44.00" length="20.80" shape="1301.60,1789.60 1301.60,1810.40"/>
    </edge>
    <edge id=":102_11" function="internal">
        <lane id=":102_11_0" index="0" speed="9.26" length="6.96" shape="1301.60,1789.60 1300.85,1794.85 1300.00,1796.27"/>
    </edge>
    <edge id=":102_18" function="internal">
        <lane id=":102_18_0" index="0" speed="9.26" length="12.40" shape="1300.00,1796.27 1298.60,1798.60 1294.85,1800.85 1289.60,1801.60"/>
    </edge>
    <edge id=":102_12" function="internal">
        <lane id=":102_12_0" index="0" speed="6.51" length="9.03" shape="1289.60,1795.20 1292.05,1794.85 1293.80,1793.80 1294.85,1792.05 1295.20,1789.60"/>
    </edge>
    <edge id=":102_13" function="internal">
        <lane id=":102_13_0" index="0" speed="28.95" length="20.80" shape="1289.60,1795.20 1310.40,1795.20"/>
        <lane id=":102_13_1" index="1" speed="28.95" length="20.80" shape="1289.60,1798.40 1310.40,1798.40"/>
    </edge>
    <edge id=":102_15" function="internal">
        <lane id=":102_15_0" index="0" speed="9.26" length="6.96" shape="1289.60,1798.40 1294.85,1799.15 1296.27,1800.00"/>
    </edge>
    <edge id=":102_19" function="internal">
        <lane id=":102_19_0" index="0" speed="9.26" length="12.40" shape="1296.27,1800.00 1298.60,1801.40 1300.85,1805.15 1301.60,1810.40"/>
    </edge>
    <edge id=":1020_0" function="internal">
        <lane id=":1020_0_0" index="0" speed="6.51" length="9.03" shape="795.20,1510.40 794.85,1507.95 793.80,1506.20 792.05,1505.15 789.60,1504.80"/>
    </edge>
    <edge id=":1020_1" function="internal">
        <lane id=":1020_1_0" index="0" speed="28.95" length="20.80" shape="795.20,1510.40 795.20,1489.60"/>
        <lane id=":1020_1_1" index="1" speed="28.95" length="20.80" shape="798.40,1510.40 798.40,1489.60"/>
    </edge>
    <edge id=":1020_3" function="internal">
        <lane id=":1020_3_0" index="0" speed="9.26" length="6.96" shape="798.40,1510.40 799.15,1505.15 800.00,1503.73"/>
    </edge>
    <edge id=":1020_16" function="internal">
        <lane id=":1020_16_0" index="0" speed="9.26" length="12.40" shape="800.00,1503.73 801.40,1501.40 805.15,1499.15 810.40,1498.40"/>
    </edge>
    <edge id=":1020_4" function="internal">
        <lane id=":1020_4_0" index="0" speed="6.51" length="9.03" shape="810.40,1504.80 807.95,1505.15 806.20,1506.20 805.15,1507.95 804.80,1510.40"/>
    </edge>
    <edge id=":1020_5" function="internal">
        <lane id=":1020_5_0" index="0" speed="44.00" length="20.80" shape="810.40,1504.80 789.60,1504.80"/>
        <lane id=":1020_5_1" index="1" speed="44.00" length="20.80" shape="810.40,1501.60 789.60,1501.60"/>
    </edge>
    <edge id=":1020_7" function="internal">
        <lane id=":1020_7_0" index="0" speed="9.26" length="6.96" shape="810.40,1501.60 805.15,1500.85 803.73,1500.00"/>
    </edge>
    <edge id=":1020_17" function="internal">
        <lane id=":1020_17_0" index="0" speed="9.26" length="12.40" shape="803.73,1500.00 801.40,1498.60 799.15,1494.85 798.40,1489.60"/>
    </edge>
    <edge id=":1020_8" function="internal">
        <lane id=":1020_8_0" index="0" speed="6.51" length="9.03" shape="804.80,1489.60 805.15,1492.05 806.20,1493.80 807.95,1494.85 810.40,1495.20"/>
    </edge>
    <edge id=":1020_9" function="internal">
        <lane id=":1020_9_0" index="0" speed="28.95" length="20.80" shape="804.80,1489.60 804.80,1510.40"/>
        <lane id=":1020_9_1" index="1" speed="28.95" length="20.80" shape="801.60,1489.60 801.60,1510.40"/>
    </edge>
    <edge id=":1020_11" function="internal">
        <lane id=":1020_11_0" index="0" speed="9.26" length="6.96" shape="801.60,1489.60 800.85,1494.85 800.00,1496.27"/>
    </edge>
    <edge id=":1020_18" function="internal">
        <lane id=":1020_18_0" index="0" speed="9.26" length="12.40" shape="800.00,1496.27 798.60,1498.60 794.85,1500.85 789.60,1501.60"/>
    </edge>
    <edge id=":1020_12" function="internal">
        <lane id=":1020_12_0" index="0" speed="6.51" length="9.03" shape="789.60,1495.20 792.05,1494.85 793.80,1493.80 794.85,1492.05 795.20,1489.60"/>
    </edge>
    <edge id=":1020_13" function="internal">
        <lane id=":1020_13_0" index="0" speed="13.89" length="20.80" shape="789.60,1495.20 810.40,1495.20"/>
        <lane id=":1020_13_1" index="1" speed="13.89" length="20.80" shape="789.60,1498.40 810.40,1498.40"/>
    </edge>
    <edge id=":1020_15" function="internal">
        <lane id=":1020_15_0" index="0" speed="9.26" length="6.96" shape="789.60,1498.40 794.85,1499.15 796.27,1500.00"/>
    </edge>
    <edge id=":1020_19" function="internal">
        <lane id=":1020_19_0" index="0" speed="9.26" length="12.40" shape="796.27,1500.00 798.60,1501.40 800.85,1505.15 801.60,1510.40"/>
    </edge>
    <edge id=":1044_0" function="internal">
        <lane id=":1044_0_0" index="0" speed="16.23" length="24.66" shape="1210.36,2117.15 1204.43,2111.75 1199.00,2107.89 1194.05,2105.57 1189.60,2104.80"/>
    </edge>
    <edge id=":1044_1" function="internal">
        <lane id=":1044_1_0" index="0" speed="17.78" length="29.67" shape="1212.62,2114.89 1206.40,2107.97 1201.96,2101.45 1199.29,2095.33 1198.40,2089.60"/>
    </edge>
    <edge id=":1044_2" function="internal">
        <lane id=":1044_2_0" index="0" speed="8.14" length="6.54" shape="1212.62,2114.89 1209.34,2109.35 1209.35,2109.25"/>
    </edge>
    <edge id=":1044_15" function="internal">
        <lane id=":1044_15_0" index="0" speed="8.14" length="17.03" shape="1209.35,2109.25 1209.69,2104.01 1213.22,2099.99 1219.45,2098.40"/>
    </edge>
    <edge id=":1044_3" function="internal">
        <lane id=":1044_3_0" index="0" speed="5.47" length="9.74" shape="1219.45,2104.80 1216.36,2105.15 1214.94,2106.19 1215.21,2107.93 1217.15,2110.36"/>
    </edge>
    <edge id=":1044_4" function="internal">
        <lane id=":1044_4_0" index="0" speed="44.00" length="29.85" shape="1219.45,2104.80 1189.60,2104.80"/>
        <lane id=":1044_4_1" index="1" speed="44.00" length="29.85" shape="1219.45,2101.60 1189.60,2101.60"/>
    </edge>
    <edge id=":1044_6" function="internal">
        <lane id=":1044_6_0" index="0" speed="10.87" length="11.87" shape="1219.45,2101.60 1210.24,2100.85 1207.76,2100.00"/>
    </edge>
    <edge id=":1044_16" function="internal">
        <lane id=":1044_16_0" index="0" speed="10.87" length="15.18" shape="1207.76,2100.00 1203.66,2098.60 1199.72,2094.85 1198.40,2089.60"/>
    </edge>
    <edge id=":1044_7" function="internal">
        <lane id=":1044_7_0" index="0" speed="8.71" length="16.99" shape="1204.80,2089.60 1205.72,2092.05 1208.46,2093.80 1213.04,2094.85 1219.45,2095.20"/>
    </edge>
    <edge id=":1044_8" function="internal">
        <lane id=":1044_8_0" index="0" speed="16.23" length="24.66" shape="1204.80,2089.60 1205.57,2094.05 1207.89,2099.00 1211.75,2104.43 1217.15,2110.36"/>
        <lane id=":1044_8_1" index="1" speed="17.08" length="27.36" shape="1201.60,2089.60 1202.68,2096.42 1205.59,2102.21 1209.83,2107.45 1214.89,2112.62"/>
    </edge>
    <edge id=":1044_10" function="internal">
        <lane id=":1044_10_0" index="0" speed="9.26" length="5.30" shape="1201.60,2089.60 1200.85,2094.85"/>
    </edge>
    <edge id=":1044_17" function="internal">
        <lane id=":1044_17_0" index="0" speed="9.26" length="14.05" shape="1200.85,2094.85 1198.60,2098.60 1194.85,2100.85 1189.60,2101.60"/>
    </edge>
    <edge id=":1044_11" function="internal">
        <lane id=":1044_11_0" index="0" speed="6.51" length="9.03" shape="1189.60,2095.20 1192.05,2094.85 1193.80,2093.80 1194.85,2092.05 1195.20,2089.60"/>
    </edge>
    <edge id=":1044_12" function="internal">
        <lane id=":1044_12_0" index="0" speed="13.89" length="29.85" shape="1189.60,2095.20 1219.45,2095.20"/>
        <lane id=":1044_12_1" index="1" speed="13.89" length="29.85" shape="1189.60,2098.40 1219.45,2098.40"/>
    </edge>
    <edge id=":1044_14" function="internal">
        <lane id=":1044_14_0" index="0" speed="17.78" length="7.58" shape="1189.60,2098.40 1195.33,2099.29 1196.96,2100.00"/>
    </edge>
    <edge id=":1044_18" function="internal">
        <lane id=":1044_18_0" index="0" speed="17.78" length="22.09" shape="1196.96,2100.00 1201.45,2101.96 1207.97,2106.40 1214.89,2112.62"/>
    </edge>
    <edge id=":112_0" function="internal">
        <lane id=":112_0_0" index="0" speed="13.89" length="20.80" shape="1195.20,1810.40 1195.20,1789.60"/>
        <lane id=":112_0_1" index="1" speed="13.89" length="20.80" shape="1198.40,1810.40 1198.40,1789.60"/>
    </edge>
    <edge id=":112_2" function="internal">
        <lane id=":112_2_0" index="0" speed="9.26" length="6.96" shape="1198.40,1810.40 1199.15,1805.15 1200.00,1803.73"/>
    </edge>
    <edge id=":112_9" function="internal">
        <lane id=":112_9_0" index="0" speed="9.26" length="12.40" shape="1200.00,1803.73 1201.40,1801.40 1205.15,1799.15 1210.40,1798.40"/>
    </edge>
    <edge id=":112_3" function="internal">
        <lane id=":112_3_0" index="0" speed="6.51" length="9.03" shape="1210.40,1804.80 1207.95,1805.15 1206.20,1806.20 1205.15,1807.95 1204.80,1810.40"/>
        <lane id=":112_3_1" index="1" speed="8.00" length="14.19" shape="1210.40,1801.60 1206.55,1802.15 1203.80,1803.80 1202.15,1806.55 1201.60,1810.40"/>
    </edge>
    <edge id=":112_5" function="internal">
        <lane id=":112_5_0" index="0" speed="9.26" length="19.35" shape="1210.40,1801.60 1205.15,1800.85 1201.40,1798.60 1199.15,1794.85 1198.40,1789.60"/>
    </edge>
    <edge id=":112_6" function="internal">
        <lane id=":112_6_0" index="0" speed="6.51" length="9.03" shape="1204.80,1789.60 1205.15,1792.05 1206.20,1793.80 1207.95,1794.85 1210.40,1795.20"/>
    </edge>
    <edge id=":112_7" function="internal">
        <lane id=":112_7_0" index="0" speed="44.00" length="20.80" shape="1204.80,1789.60 1204.80,1810.40"/>
        <lane id=":112_7_1" index="1" speed="44.00" length="20.80" shape="1201.60,1789.60 1201.60,1810.40"/>
    </edge>
    <edge id=":122_0" function="internal">
        <lane id=":122_0_0" index="0" speed="6.51" length="9.03" shape="1495.20,1810.40 1494.85,1807.95 1493.80,1806.20 1492.05,1805.15 1489.60,1804.80"/>
    </edge>
    <edge id=":122_1" function="internal">
        <lane id=":122_1_0" index="0" speed="28.95" length="20.80" shape="1495.20,1810.40 1495.20,1789.60"/>
        <lane id=":122_1_1" index="1" speed="28.95" length="20.80" shape="1498.40,1810.40 1498.40,1789.60"/>
    </edge>
    <edge id=":122_3" function="internal">
        <lane id=":122_3_0" index="0" speed="28.95" length="20.80" shape="1504.80,1789.60 1504.80,1810.40"/>
        <lane id=":122_3_1" index="1" speed="28.95" length="20.80" shape="1501.60,1789.60 1501.60,1810.40"/>
    </edge>
    <edge id=":122_5" function="internal">
        <lane id=":122_5_0" index="0" speed="9.26" length="6.96" shape="1501.60,1789.60 1500.85,1794.85 1500.00,1796.27"/>
    </edge>
    <edge id=":122_9" function="internal">
        <lane id=":122_9_0" index="0" speed="9.26" length="12.40" shape="1500.00,1796.27 1498.60,1798.60 1494.85,1800.85 1489.60,1801.60"/>
    </edge>
    <edge id=":122_6" function="internal">
        <lane id=":122_6_0" index="0" speed="6.51" length="9.03" shape="1489.60,1795.20 1492.05,1794.85 1493.80,1793.80 1494.85,1792.05 1495.20,1789.60"/>
        <lane id=":122_6_1" index="1" speed="8.00" length="14.19" shape="1489.60,1798.40 1493.45,1797.85 1496.20,1796.20 1497.85,1793.45 1498.40,1789.60"/>
    </edge>
    <edge id=":122_8" function="internal">
        <lane id=":122_8_0" index="0" speed="9.26" length="19.35" shape="1489.60,1798.40 1494.85,1799.15 1498.60,1801.40 1500.85,1805.15 1501.60,1810.40"/>
    </edge>
    <edge id=":1281_0" function="internal">
        <lane id=":1281_0_0" index="0" speed="8.71" length="16.99" shape="795.20,1610.40 794.28,1607.95 791.54,1606.20 786.96,1605.15 780.55,1604.80"/>
    </edge>
    <edge id=":1281_1" function="internal">
        <lane id=":1281_1_0" index="0" speed="16.59" length="25.79" shape="795.20,1610.40 794.57,1604.11 792.68,1598.18 789.53,1592.60 785.11,1587.38"/>
    </edge>
    <edge id=":1281_2" function="internal">
        <lane id=":1281_2_0" index="0" speed="13.89" length="29.85" shape="795.20,1610.40 795.20,1580.55"/>
        <lane id=":1281_2_1" index="1" speed="13.89" length="29.85" shape="798.40,1610.40 798.40,1580.55"/>
    </edge>
    <edge id=":1281_4" function="internal">
        <lane id=":1281_4_0" index="0" speed="44.00" length="29.85" shape="804.80,1580.55 804.80,1610.40"/>
        <lane id=":1281_4_1" index="1" speed="44.00" length="29.85" shape="801.60,1580.55 801.60,1610.40"/>
    </edge>
    <edge id=":1281_6" function="internal">
        <lane id=":1281_6_0" index="0" speed="12.13" length="9.86" shape="801.60,1580.55 800.28,1589.76 800.00,1590.23"/>
    </edge>
    <edge id=":1281_7" function="internal">
        <lane id=":1281_7_0" index="0" speed="8.14" length="6.43" shape="801.60,1580.55 800.01,1586.78"/>
    </edge>
    <edge id=":1281_16" function="internal">
        <lane id=":1281_16_0" index="0" speed="12.13" length="24.09" shape="800.00,1590.23 796.34,1596.34 789.76,1600.28 780.55,1601.60"/>
    </edge>
    <edge id=":1281_17" function="internal">
        <lane id=":1281_17_0" index="0" speed="8.14" length="17.13" shape="800.01,1586.78 795.99,1590.31 790.65,1590.66 785.11,1587.38"/>
    </edge>
    <edge id=":1281_8" function="internal">
        <lane id=":1281_8_0" index="0" speed="5.47" length="9.74" shape="789.64,1582.85 792.07,1584.79 793.81,1585.06 794.85,1583.64 795.20,1580.55"/>
    </edge>
    <edge id=":1281_9" function="internal">
        <lane id=":1281_9_0" index="0" speed="18.49" length="32.13" shape="789.64,1582.85 794.99,1588.73 799.87,1595.53 803.43,1602.87 804.80,1610.40"/>
        <lane id=":1281_9_1" index="1" speed="17.78" length="29.67" shape="787.38,1585.11 793.60,1592.03 798.04,1598.55 800.71,1604.67 801.60,1610.40"/>
    </edge>
    <edge id=":1281_11" function="internal">
        <lane id=":1281_11_0" index="0" speed="8.14" length="23.57" shape="787.38,1585.11 790.66,1590.65 790.31,1595.99 786.78,1600.01 780.55,1601.60"/>
    </edge>
    <edge id=":1281_12" function="internal">
        <lane id=":1281_12_0" index="0" speed="5.47" length="9.74" shape="780.55,1595.20 783.64,1594.85 785.06,1593.81 784.79,1592.07 782.85,1589.64"/>
    </edge>
    <edge id=":1281_13" function="internal">
        <lane id=":1281_13_0" index="0" speed="10.18" length="23.63" shape="780.55,1595.20 786.96,1594.28 791.54,1591.54 794.28,1586.96 795.20,1580.55"/>
        <lane id=":1281_13_1" index="1" speed="11.20" length="28.79" shape="780.55,1598.40 788.36,1597.28 793.94,1593.94 797.28,1588.36 798.40,1580.55"/>
    </edge>
    <edge id=":1281_15" function="internal">
        <lane id=":1281_15_0" index="0" speed="10.87" length="27.05" shape="780.55,1598.40 789.76,1599.15 796.34,1601.40 800.28,1605.15 801.60,1610.40"/>
    </edge>
    <edge id=":1283_0" function="internal">
        <lane id=":1283_0_0" index="0" speed="8.71" length="16.99" shape="710.36,1517.15 705.58,1512.86 701.60,1510.37 698.42,1509.66 696.04,1510.75"/>
    </edge>
    <edge id=":1283_1" function="internal">
        <lane id=":1283_1_0" index="0" speed="12.13" length="33.95" shape="712.62,1514.89 707.04,1507.44 705.18,1500.00 707.04,1492.56 712.62,1485.11"/>
    </edge>
    <edge id=":1283_2" function="internal">
        <lane id=":1283_2_0" index="0" speed="8.14" length="23.57" shape="712.62,1514.89 709.34,1509.35 709.69,1504.01 713.22,1499.99 719.45,1498.40"/>
    </edge>
    <edge id=":1283_3" function="internal">
        <lane id=":1283_3_0" index="0" speed="5.47" length="9.74" shape="719.45,1504.80 716.36,1505.15 714.94,1506.19 715.21,1507.93 717.15,1510.36"/>
    </edge>
    <edge id=":1283_4" function="internal">
        <lane id=":1283_4_0" index="0" speed="16.34" length="24.99" shape="719.45,1504.80 712.57,1504.74 706.65,1505.12 701.27,1506.84 696.04,1510.75"/>