
                    <configuration>
                        <input>
                            <net-file value="../u_map.net.xml"/>
                            <route-files value="route_1000_02_16.rou.xml"/>
                            <additional-files value="../map.add.xml"/>
                        </input>
                    </configuration>
                