<?xml version="1.0" encoding="UTF-8"?>

<!-- generated on 2021-07-13 15:21:19 by Eclipse SUMO duarouter Version 1.9.2
<configuration xmlns:xsi="http://www.w3.org/2001/XMLSchema-instance" xsi:noNamespaceSchemaLocation="http://sumo.dlr.de/xsd/duarouterConfiguration.xsd">

    <input>
        <net-file value="../u_map.net.xml"/>
        <route-files value="trips.trips.xml"/>
    </input>

    <output>
        <output-file value="map2000_07.rou.xml"/>
        <alternatives-output value="map2000_07.rou.alt.xml"/>
    </output>

    <time>
        <begin value="0"/>
        <end value="2000"/>
    </time>

    <report>
        <no-warnings value="true"/>
        <ignore-errors value="true"/>
        <no-step-log value="true"/>
    </report>

</configuration>
-->

<routes xmlns:xsi="http://www.w3.org/2001/XMLSchema-instance" xsi:noNamespaceSchemaLocation="http://sumo.dlr.de/xsd/routes_file.xsd">
    <vehicle id="0" depart="0.00">
        <route edges="I2I3 I3H3 H3G3 G3F3 F3E3 E3D3 D3C3 C3B3 B3B4 B4C4"/>
    </vehicle>
    <vehicle id="1" depart="0.70">
        <route edges="I0I1 I1I2 I2I3 I3I4 I4I5 I5H5 H5G5 G5F5 F5E5 E5D5"/>
    </vehicle>
    <vehicle id="2" depart="1.40">
        <route edges="D3D4 D4D5 D5D6 D6E6 E6E7 E7D7"/>
    </vehicle>
    <vehicle id="3" depart="2.10">
        <route edges="A5A6 A6A7 A7B7 B7C7 C7D7 D7E7 E7F7 F7G7 G7H7 H7I7 I7I8 I8H8"/>
    </vehicle>
    <vehicle id="4" depart="2.80">
        <route edges="A8A7 A7A6 A6A5 A5A4 A4B4 B4C4 C4D4 D4D3"/>
    </vehicle>
    <vehicle id="5" depart="3.50">
        <route edges="H3H2 H2G2 G2G3 G3G4 G4H4 H4H5"/>
    </vehicle>
    <vehicle id="6" depart="4.20">
        <route edges="H4I4 I4I5 I5I6 I6I7 I7H7 H7G7 G7F7 F7E7 E7D7 D7C7 C7C8 C8D8"/>
    </vehicle>
    <vehicle id="7" depart="4.90">
        <route edges="B4C4 C4C5 C5C6 C6D6 D6E6 E6F6 F6G6"/>
    </vehicle>
    <vehicle id="8" depart="5.60">
        <route edges="A5B5 B5B4 B4B3 B3B2 B2B1 B1B0 B0C0 C0D0 D0E0 E0F0 F0F1"/>
    </vehicle>
    <vehicle id="9" depart="6.30">
        <route edges="J0I0 I0H0 H0G0 G0F0 F0E0 E0E1 E1E2 E2E3 E3E4 E4E5 E5E6 E6E7 E7F7"/>
    </vehicle>
    <vehicle id="10" depart="7.00">
        <route edges="E9F9 F9F8 F8F7 F7E7 E7D7 D7C7 C7B7 B7A7 A7A6 A6A5 A5A4"/>
    </vehicle>
    <vehicle id="11" depart="7.70">
        <route edges="C4B4 B4B5 B5C5 C5D5 D5E5 E5F5 F5G5 G5H5 H5H4"/>
    </vehicle>
    <vehicle id="12" depart="8.40">
        <route edges="E8D8 D8D7 D7D6 D6D5 D5D4 D4D3 D3E3 E3E2 E2D2 D2D3"/>
    </vehicle>
    <vehicle id="13" depart="9.10">
        <route edges="D9E9 E9F9 F9G9 G9H9 H9I9 I9I8 I8I7 I7I6 I6I5 I5I4 I4I3 I3I2 I2I1 I1J1"/>
    </vehicle>
    <vehicle id="14" depart="9.80">
        <route edges="C9D9 D9E9 E9E8 E8E7 E7D7"/>
    </vehicle>
    <vehicle id="15" depart="10.50">
        <route edges="D4E4 E4E5 E5E6 E6E7 E7F7 F7G7 G7H7 H7I7 I7I6"/>
    </vehicle>
    <vehicle id="16" depart="11.20">
        <route edges="C8D8 D8D7 D7D6 D6D5 D5D4 D4E4 E4F4 F4G4 G4H4 H4I4 I4J4"/>
    </vehicle>
    <vehicle id="17" depart="11.90">
        <route edges="C0C1 C1C2 C2C3 C3C4 C4C5 C5C6 C6B6 B6A6 A6A7"/>
    </vehicle>
    <vehicle id="18" depart="12.60">
        <route edges="A3B3 B3C3 C3D3 D3E3 E3F3 F3G3 G3G4 G4F4"/>
    </vehicle>
    <vehicle id="19" depart="13.30">
        <route edges="G1F1 F1F2 F2F3 F3G3 G3H3"/>
    </vehicle>
    <vehicle id="20" depart="14.00">
        <route edges="I3J3 J3J4 J4J5 J5I5 I5I6"/>
    </vehicle>
    <vehicle id="21" depart="14.70">
        <route edges="E1E0 E0D0 D0C0 C0B0 B0A0 A0A1 A1A2 A2B2"/>
    </vehicle>
    <vehicle id="22" depart="15.40">
        <route edges="I0I1 I1I2 I2I3 I3H3 H3G3 G3G4 G4H4"/>
    </vehicle>
    <vehicle id="23" depart="16.10">
        <route edges="B8B7 B7B6 B6B5 B5B4 B4B3 B3B2 B2C2 C2D2 D2E2 E2F2 F2G2"/>
    </vehicle>
    <vehicle id="24" depart="16.80">
        <route edges="A4A5 A5B5 B5C5 C5D5 D5D4"/>
    </vehicle>
    <vehicle id="25" depart="17.50">
        <route edges="D2E2 E2E1 E1D1 D1C1 C1B1"/>
    </vehicle>
    <vehicle id="26" depart="18.20">
        <route edges="B9A9 A9A8 A8A7 A7A6 A6A5 A5B5 B5C5 C5D5 D5E5 E5F5 F5G5 G5H5 H5H4 H4H3 H3H2"/>
    </vehicle>
    <vehicle id="27" depart="18.90">
        <route edges="J3I3 I3H3 H3G3 G3F3 F3F2"/>
    </vehicle>
    <vehicle id="28" depart="19.60">
        <route edges="G3G4 G4G5 G5G6 G6H6 H6I6 I6I7"/>
    </vehicle>
    <vehicle id="29" depart="20.30">
        <route edges="C8B8 B8B9 B9C9 C9D9 D9D8 D8C8"/>
    </vehicle>
    <vehicle id="30" depart="21.00">
        <route edges="F7E7 E7E6 E6E5 E5E4 E4E3 E3D3 D3C3"/>
    </vehicle>
    <vehicle id="31" depart="21.70">
        <route edges="A4A3 A3B3 B3C3 C3D3 D3E3 E3F3 F3F4 F4F5 F5F6 F6F7 F7G7 G7H7"/>
    </vehicle>
    <vehicle id="32" depart="22.40">
        <route edges="D4E4 E4E3 E3D3 D3C3 C3C2 C2D2"/>
    </vehicle>
    <vehicle id="33" depart="23.10">
        <route edges="G4F4 F4F3 F3E3 E3D3 D3D4"/>
    </vehicle>
    <vehicle id="34" depart="23.80">
        <route edges="B2A2 A2A3 A3A4 A4A5 A5A6 A6A7 A7A8 A8B8 B8B9"/>
    </vehicle>
    <vehicle id="35" depart="24.50">
        <route edges="H2G2 G2F2 F2E2 E2E3 E3E4 E4E5 E5F5"/>
    </vehicle>
    <vehicle id="36" depart="25.20">
        <route edges="H2I2 I2I1 I1H1 H1G1 G1F1 F1E1 E1E2 E2E3 E3F3"/>
    </vehicle>
    <vehicle id="37" depart="25.90">
        <route edges="F3G3 G3G4 G4F4 F4E4 E4D4 D4C4 C4B4 B4B5"/>
    </vehicle>
    <vehicle id="38" depart="26.60">
        <route edges="D6E6 E6F6 F6F7 F7F8 F8F9 F9E9 E9E8"/>
    </vehicle>
    <vehicle id="39" depart="27.30">
        <route edges="G6F6 F6E6 E6E5 E5E4 E4E3 E3E2 E2E1 E1E0"/>
    </vehicle>
    <vehicle id="40" depart="28.00">
        <route edges="H3G3 G3G2 G2F2 F2F3 F3G3"/>
    </vehicle>
    <vehicle id="41" depart="28.70">
        <route edges="C0C1 C1C2 C2C3 C3C4 C4D4 D4E4 E4F4 F4G4 G4H4"/>
    </vehicle>
    <vehicle id="42" depart="29.40">
        <route edges="F8F9 F9E9 E9E8 E8E7 E7E6 E6E5 E5E4 E4E3 E3E2 E2E1 E1E0 E0D0"/>
    </vehicle>
    <vehicle id="43" depart="30.10">
        <route edges="E9E8 E8E7 E7E6 E6E5"/>
    </vehicle>
    <vehicle id="44" depart="30.80">
        <route edges="A1A0 A0B0 B0C0 C0D0 D0E0 E0F0 F0G0 G0H0 H0I0 I0I1 I1I2 I2I3 I3I4 I4H4"/>
    </vehicle>
    <vehicle id="45" depart="31.50">
        <route edges="A2A3 A3A4 A4A5 A5B5 B5C5 C5D5 D5E5 E5F5 F5G5 G5H5 H5I5 I5J5"/>
    </vehicle>
    <vehicle id="46" depart="32.20">
        <route edges="G0F0 F0F1 F1F2 F2F3 F3F4 F4F5 F5E5 E5D5 D5D4"/>
    </vehicle>
    <vehicle id="47" depart="32.90">
        <route edges="E7F7 F7F8 F8E8 E8D8 D8D7"/>
    </vehicle>
    <vehicle id="48" depart="33.60">
        <route edges="G6G7 G7H7 H7H6 H6H5 H5G5 G5G4 G4H4"/>
    </vehicle>
    <vehicle id="49" depart="34.30">
        <route edges="G3G4 G4G5 G5G6 G6H6"/>
    </vehicle>
    <vehicle id="50" depart="35.00">
        <route edges="H0G0 G0F0 F0F1 F1F2 F2F3 F3E3"/>
    </vehicle>
    <vehicle id="51" depart="35.70">
        <route edges="D5C5 C5C4 C4D4 D4E4 E4F4 F4G4 G4H4 H4H3 H3H2 H2H1 H1G1"/>
    </vehicle>
    <vehicle id="52" depart="36.40">
        <route edges="C1B1 B1B2 B2B3 B3B4 B4B5 B5B6 B6B7 B7B8 B8C8 C8D8 D8E8 E8F8 F8G8 G8G7"/>
    </vehicle>
    <vehicle id="53" depart="37.10">
        <route edges="B4B3 B3B2 B2B1 B1C1 C1D1 D1E1 E1F1 F1G1"/>
    </vehicle>
    <vehicle id="54" depart="37.80">
        <route edges="G6H6 H6H5 H5H4 H4H3 H3H2 H2H1 H1G1 G1F1 F1E1 E1E0 E0F0"/>
    </vehicle>
    <vehicle id="55" depart="38.50">
        <route edges="C0D0 D0E0 E0F0 F0G0 G0H0 H0I0 I0I1 I1I2 I2I3 I3I4 I4H4"/>
    </vehicle>
    <vehicle id="56" depart="39.20">
        <route edges="C1C0 C0D0 D0E0 E0F0 F0G0 G0H0 H0I0 I0J0 J0J1 J1J2 J2J3 J3J4 J4J5 J5J6 J6J7 J7I7"/>
    </vehicle>
    <vehicle id="57" depart="39.90">
        <route edges="B4B3 B3C3 C3C4 C4C5 C5C6 C6C7 C7B7 B7A7 A7A6"/>
    </vehicle>
    <vehicle id="58" depart="40.60">
        <route edges="E6E7 E7F7 F7F6 F6E6 E6E5 E5F5"/>
    </vehicle>
    <vehicle id="59" depart="41.30">
        <route edges="F3F2 F2E2 E2E3 E3E4 E4E5 E5D5 D5C5"/>
    </vehicle>
    <vehicle id="60" depart="42.00">
        <route edges="J2J3 J3I3 I3H3 H3G3 G3F3 F3E3 E3E2"/>
    </vehicle>
    <vehicle id="61" depart="42.70">
        <route edges="C1B1 B1B2 B2B3 B3B4 B4C4 C4D4 D4E4 E4F4 F4F5 F5F6 F6F7 F7F8 F8F9"/>
    </vehicle>
    <vehicle id="62" depart="43.40">
        <route edges="C7D7 D7E7 E7E6 E6E5 E5D5"/>
    </vehicle>
    <vehicle id="63" depart="44.10">
        <route edges="B6B7 B7C7 C7C6 C6C5 C5C4 C4C3 C3B3 B3A3 A3A4"/>
    </vehicle>
    <vehicle id="64" depart="44.80">
        <route edges="G5F5 F5F4 F4F3 F3G3 G3H3 H3H4"/>
    </vehicle>
    <vehicle id="65" depart="45.50">
        <route edges="E4D4 D4D5 D5D6 D6D7 D7E7 E7F7"/>
    </vehicle>
    <vehicle id="66" depart="46.20">
        <route edges="I6I5 I5I4 I4H4 H4G4 G4F4 F4E4 E4D4 D4D3 D3E3"/>
    </vehicle>
    <vehicle id="67" depart="46.90">
        <route edges="I7J7 J7J6 J6J5 J5J4 J4I4 I4H4 H4G4 G4F4 F4E4 E4D4 D4C4 C4B4 B4A4 A4A3 A3A2 A2A1 A1A0 A0B0"/>
    </vehicle>
    <vehicle id="68" depart="47.60">
        <route edges="H2H1 H1G1 G1G2 G2G3 G3G4 G4F4"/>
    </vehicle>
    <vehicle id="69" depart="48.30">
        <route edges="I8J8 J8J7 J7J6 J6I6 I6H6 H6G6 G6F6 F6E6 E6D6 D6D7 D7E7"/>
    </vehicle>
    <vehicle id="70" depart="49.00">
        <route edges="J0J1 J1J2 J2I2 I2H2 H2G2 G2F2 F2E2 E2D2 D2C2 C2B2 B2B3"/>
    </vehicle>
    <vehicle id="71" depart="49.70">
        <route edges="D3C3 C3C4 C4C5 C5C6 C6C7 C7C8 C8C9 C9D9 D9E9 E9F9 F9F8"/>
    </vehicle>
    <vehicle id="72" depart="50.40">
        <route edges="D3E3 E3F3 F3G3 G3G4 G4G5 G5G6 G6G7"/>
    </vehicle>
    <vehicle id="73" depart="51.10">
        <route edges="B6B5 B5B4 B4C4 C4D4 D4E4 E4E5"/>
    </vehicle>
    <vehicle id="74" depart="51.80">
        <route edges="B1A1 A1A2 A2A3 A3A4 A4A5 A5A6 A6B6 B6C6 C6D6 D6E6 E6E5"/>
    </vehicle>
    <vehicle id="75" depart="52.50">
        <route edges="C6D6 D6D5 D5D4 D4D3 D3D2 D2D1 D1E1 E1F1 F1G1 G1G2"/>
    </vehicle>
    <vehicle id="76" depart="53.20">
        <route edges="B9A9 A9A8 A8A7 A7A6 A6A5 A5A4 A4A3 A3A2 A2A1 A1A0 A0B0 B0C0 C0D0 D0E0 E0F0"/>
    </vehicle>
    <vehicle id="77" depart="53.90">
        <route edges="H9I9 I9I8 I8I7 I7I6 I6I5 I5I4 I4I3 I3I2 I2I1 I1I0 I0H0 H0G0 G0F0 F0E0 E0D0 D0C0 C0C1"/>
    </vehicle>
    <vehicle id="78" depart="54.60">
        <route edges="B7B6 B6C6 C6C7 C7D7 D7E7 E7F7 F7G7 G7G6 G6F6"/>
    </vehicle>
    <vehicle id="79" depart="55.30">
        <route edges="E4F4 F4F3 F3F2 F2F1 F1E1 E1D1 D1C1 C1C0"/>
    </vehicle>
    <vehicle id="80" depart="56.00">
        <route edges="I4H4 H4G4 G4G3 G3G2 G2G1"/>
    </vehicle>
    <vehicle id="81" depart="56.70">
        <route edges="E1E0 E0D0 D0D1 D1D2 D2D3 D3D4 D4D5 D5D6 D6C6"/>
    </vehicle>
    <vehicle id="82" depart="57.40">
        <route edges="I2J2 J2J3 J3J4 J4J5 J5J6 J6J7 J7I7 I7H7"/>
    </vehicle>
    <vehicle id="83" depart="58.10">
        <route edges="B2B3 B3C3 C3C2 C2C1 C1C0"/>
    </vehicle>
    <vehicle id="84" depart="58.80">
        <route edges="C8C9 C9D9 D9D8 D8D7 D7D6 D6D5 D5D4 D4D3 D3D2 D2D1 D1E1"/>
    </vehicle>
    <vehicle id="85" depart="59.50">
        <route edges="B8B9 B9C9 C9C8 C8B8 B8A8 A8A9 A9B9"/>
    </vehicle>
    <vehicle id="86" depart="60.20">
        <route edges="H9H8 H8G8 G8F8 F8E8 E8E9 E9D9 D9C9"/>
    </vehicle>
    <vehicle id="87" depart="60.90">
        <route edges="F4F3 F3E3 E3E4 E4F4"/>
    </vehicle>
    <vehicle id="88" depart="61.60">
        <route edges="H4H5 H5G5 G5G4 G4F4 F4E4 E4D4 D4C4"/>
    </vehicle>
    <vehicle id="89" depart="62.30">
        <route edges="B0A0 A0A1 A1A2 A2A3 A3A4 A4A5 A5A6 A6A7 A7A8 A8A9 A9B9 B9C9 C9D9 D9E9 E9F9 F9G9 G9H9 H9I9"/>
    </vehicle>
    <vehicle id="90" depart="63.00">
        <route edges="H5H6 H6G6 G6G5 G5G4 G4G3 G3G2 G2H2"/>
    </vehicle>
    <vehicle id="91" depart="63.70">
        <route edges="G5G6 G6F6 F6E6 E6D6 D6C6 C6B6 B6A6 A6A5 A5A4 A4A3 A3A2 A2A1 A1B1"/>
    </vehicle>
    <vehicle id="92" depart="64.40">
        <route edges="D1E1 E1E2 E2E3 E3D3 D3C3 C3C2"/>
    </vehicle>
    <vehicle id="93" depart="65.10">
        <route edges="C7C8 C8D8 D8E8 E8F8 F8F7 F7F6 F6E6"/>
    </vehicle>
    <vehicle id="94" depart="65.80">
        <route edges="I2J2 J2J1 J1I1 I1H1 H1G1 G1F1 F1E1 E1D1 D1C1 C1C2 C2C3 C3D3"/>
    </vehicle>
    <vehicle id="95" depart="66.50">
        <route edges="G4G3 G3F3 F3F4 F4F5 F5F6 F6E6 E6D6 D6C6 C6C5"/>
    </vehicle>
    <vehicle id="96" depart="67.20">
        <route edges="J9J8 J8J7 J7J6 J6J5 J5J4 J4J3 J3J2 J2J1 J1I1 I1H1 H1G1 G1F1 F1E1 E1E2"/>
    </vehicle>
    <vehicle id="97" depart="67.90">
        <route edges="H4H5 H5G5 G5G4 G4G3 G3G2 G2G1 G1G0 G0H0"/>
    </vehicle>
    <vehicle id="98" depart="68.60">
        <route edges="G5F5 F5F4 F4F3 F3F2 F2F1 F1G1 G1H1 H1I1 I1I2"/>
    </vehicle>
    <vehicle id="99" depart="69.30">
        <route edges="E7F7 F7G7 G7H7 H7H6 H6H5 H5I5"/>
    </vehicle>
    <vehicle id="100" depart="70.00">
        <route edges="C7B7 B7B8 B8B9 B9C9 C9D9 D9E9 E9F9 F9G9 G9H9"/>
    </vehicle>
    <vehicle id="101" depart="70.70">
        <route edges="B3B2 B2C2 C2D2 D2E2 E2F2 F2G2 G2G3 G3G4 G4G5 G5G6 G6G7 G7G8 G8G9 G9H9 H9I9 I9I8"/>
    </vehicle>
    <vehicle id="102" depart="71.40">
        <route edges="B0A0 A0A1 A1A2 A2A3 A3B3 B3C3 C3D3 D3E3 E3E4 E4E5 E5E6 E6E7 E7E8 E8E9 E9D9"/>
    </vehicle>
    <vehicle id="103" depart="72.10">
        <route edges="I8I7 I7I6 I6I5 I5I4 I4I3 I3I2 I2I1 I1H1 H1G1 G1F1 F1E1 E1E2"/>
    </vehicle>
    <vehicle id="104" depart="72.80">
        <route edges="D0E0 E0F0 F0G0 G0H0 H0I0 I0J0 J0J1 J1J2 J2J3 J3J4 J4J5 J5J6 J6J7 J7I7"/>
    </vehicle>
    <vehicle id="105" depart="73.50">
        <route edges="I7I8 I8H8 H8G8 G8F8 F8E8 E8D8 D8D7 D7C7 C7B7"/>
    </vehicle>
    <vehicle id="106" depart="74.20">
        <route edges="B5A5 A5A6 A6A7 A7B7 B7C7 C7D7 D7E7 E7F7 F7G7"/>
    </vehicle>
    <vehicle id="107" depart="74.90">
        <route edges="J5J6 J6I6 I6I7 I7J7 J7J6 J6J5 J5I5"/>
    </vehicle>
    <vehicle id="108" depart="75.60">
        <route edges="G7G8 G8F8 F8E8 E8D8 D8C8 C8B8 B8B7 B7B6 B6B5 B5B4 B4B3 B3B2 B2B1 B1B0 B0A0"/>
    </vehicle>
    <vehicle id="109" depart="76.30">
        <route edges="E4D4 D4C4 C4C5 C5C6 C6C7 C7B7 B7B6"/>
    </vehicle>
    <vehicle id="110" depart="77.00">
        <route edges="E5E6 E6D6 D6D5 D5C5 C5C6"/>
    </vehicle>
    <vehicle id="111" depart="77.70">
        <route edges="C0D0 D0E0 E0F0 F0G0 G0H0 H0H1 H1H2 H2H3 H3H4 H4H5 H5G5"/>
    </vehicle>
    <vehicle id="112" depart="78.40">
        <route edges="B2B1 B1C1 C1D1 D1D0"/>
    </vehicle>
    <vehicle id="113" depart="79.10">
        <route edges="C4C3 C3B3 B3B4 B4B5 B5B6 B6B7 B7C7 C7C8"/>
    </vehicle>
    <vehicle id="114" depart="79.80">
        <route edges="C1C2 C2D2 D2D1 D1C1 C1C0 C0D0"/>
    </vehicle>
    <vehicle id="115" depart="80.50">
        <route edges="E3E2 E2F2 F2F3 F3F4 F4F5 F5G5 G5H5 H5H4"/>
    </vehicle>
    <vehicle id="116" depart="81.20">
        <route edges="B2B3 B3C3 C3C2 C2C1 C1C0 C0D0 D0E0"/>
    </vehicle>
    <vehicle id="117" depart="81.90">
        <route edges="D2D3 D3D4 D4D5 D5D6 D6D7 D7D8 D8C8 C8B8"/>
    </vehicle>
    <vehicle id="118" depart="82.60">
        <route edges="J0J1 J1J2 J2J3 J3J4 J4J5 J5J6 J6I6 I6H6 H6H7"/>
    </vehicle>
    <vehicle id="119" depart="83.30">
        <route edges="J3I3 I3I4 I4I5 I5I6 I6I7 I7I8 I8H8 H8G8 G8F8 F8E8"/>
    </vehicle>
    <vehicle id="120" depart="84.00">
        <route edges="F4E4 E4E5 E5E6 E6E7 E7E8 E8D8 D8C8 C8B8"/>
    </vehicle>
    <vehicle id="121" depart="84.70">
        <route edges="I0I1 I1I2 I2I3 I3H3 H3G3"/>
    </vehicle>
    <vehicle id="122" depart="85.40">
        <route edges="J2J3 J3J4 J4J5 J5J6 J6I6 I6H6 H6G6 G6G7"/>
    </vehicle>
    <vehicle id="123" depart="86.10">
        <route edges="I9I8 I8H8 H8G8 G8F8 F8E8 E8D8 D8C8 C8B8"/>
    </vehicle>
    <vehicle id="124" depart="86.80">
        <route edges="H9H8 H8H7 H7G7 G7F7 F7E7 E7D7 D7C7 C7B7 B7B6 B6B5 B5B4 B4B3 B3B2 B2B1 B1C1"/>
    </vehicle>
    <vehicle id="125" depart="87.50">
        <route edges="I1H1 H1G1 G1F1 F1E1 E1D1 D1D2 D2D3 D3D4 D4D5 D5D6 D6D7 D7D8 D8C8"/>
    </vehicle>
    <vehicle id="126" depart="88.20">
        <route edges="G6G5 G5G4 G4G3 G3G2 G2F2 F2E2 E2D2 D2C2 C2B2 B2B1 B1B0"/>
    </vehicle>
    <vehicle id="127" depart="88.90">
        <route edges="A6A7 A7B7 B7C7 C7D7 D7E7 E7F7 F7G7 G7H7 H7H6 H6H5 H5H4 H4I4"/>
    </vehicle>
    <vehicle id="128" depart="89.60">
        <route edges="G5G4 G4F4 F4E4 E4D4 D4C4 C4B4 B4B3"/>
    </vehicle>
    <vehicle id="129" depart="90.30">
        <route edges="D6D7 D7E7 E7F7 F7G7 G7H7 H7H6"/>
    </vehicle>
    <vehicle id="130" depart="91.00">
        <route edges="C0C1 C1C2 C2C3 C3D3 D3E3"/>
    </vehicle>
    <vehicle id="131" depart="91.70">
        <route edges="A4A3 A3B3 B3B4 B4C4 C4D4 D4E4 E4F4"/>
    </vehicle>
    <vehicle id="132" depart="92.40">
        <route edges="G6F6 F6F5 F5F4 F4F3 F3F2 F2F1 F1F0 F0G0 G0H0 H0H1"/>
    </vehicle>
    <vehicle id="133" depart="93.10">
        <route edges="G6G7 G7F7 F7E7"/>
    </vehicle>
    <vehicle id="134" depart="93.80">
        <route edges="H9H8 H8H7 H7H6 H6H5 H5H4 H4H3 H3H2 H2H1 H1H0 H0G0 G0F0 F0E0"/>
    </vehicle>
    <vehicle id="135" depart="94.50">
        <route edges="C8C7 C7C6 C6C5 C5C4 C4B4 B4B5"/>
    </vehicle>
    <vehicle id="136" depart="95.20">
        <route edges="G8H8 H8I8 I8I7 I7I6 I6H6 H6H7"/>
    </vehicle>
    <vehicle id="137" depart="95.90">
        <route edges="E6E7 E7F7 F7F6 F6F5 F5F4 F4F3 F3F2 F2F1 F1E1"/>
    </vehicle>
    <vehicle id="138" depart="96.60">
        <route edges="E8F8 F8G8 G8G7 G7G6 G6G5 G5G4 G4F4 F4F5"/>
    </vehicle>
    <vehicle id="139" depart="97.30">
        <route edges="E1E0 E0F0 F0G0 G0G1 G1G2 G2G3 G3G4 G4G5 G5G6 G6G7 G7F7"/>
    </vehicle>
    <vehicle id="140" depart="98.00">
        <route edges="I1H1 H1G1 G1F1 F1E1 E1D1 D1D2 D2D3 D3D4 D4D5 D5D6 D6D7 D7D8 D8C8 C8C7"/>
    </vehicle>
    <vehicle id="141" depart="98.70">
        <route edges="G8F8 F8E8 E8E7 E7E6 E6F6"/>
    </vehicle>
    <vehicle id="142" depart="99.40">
        <route edges="C1C0"/>
    </vehicle>
    <vehicle id="143" depart="100.10">
        <route edges="F0E0 E0E1 E1E2 E2E3 E3E4 E4E5 E5E6 E6E7 E7E8 E8E9 E9F9 F9G9 G9H9 H9H8"/>
    </vehicle>
    <vehicle id="144" depart="100.80">
        <route edges="J3J4 J4J5 J5J6 J6I6 I6H6 H6G6"/>
    </vehicle>
    <vehicle id="145" depart="101.50">
        <route edges="I8J8 J8J7 J7I7 I7I8 I8I9"/>
    </vehicle>
    <vehicle id="146" depart="102.20">
        <route edges="J7J6 J6J5 J5J4 J4J3 J3J2 J2I2 I2H2 H2G2 G2F2 F2E2 E2D2 D2C2"/>
    </vehicle>
    <vehicle id="147" depart="102.90">
        <route edges="I1I0 I0H0 H0G0 G0G1 G1G2 G2F2 F2E2 E2D2 D2C2 C2C1"/>
    </vehicle>
    <vehicle id="148" depart="103.60">
        <route edges="C7D7 D7E7 E7F7 F7G7 G7H7 H7H6 H6G6"/>
    </vehicle>
    <vehicle id="149" depart="104.30">
        <route edges="H6I6 I6I5 I5I4 I4I3 I3H3 H3G3 G3F3 F3E3 E3E2 E2E1 E1E0 E0F0"/>
    </vehicle>
    <vehicle id="150" depart="105.00">
        <route edges="B7B6 B6C6 C6D6 D6E6 E6F6 F6G6 G6H6 H6H7 H7H8 H8H9 H9G9"/>
    </vehicle>
    <vehicle id="151" depart="105.70">
        <route edges="I4H4 H4H3 H3G3 G3F3 F3F4"/>
    </vehicle>
    <vehicle id="152" depart="106.40">
        <route edges="F1G1 G1G2 G2G3 G3G4 G4G5 G5G6 G6G7 G7G8 G8H8"/>
    </vehicle>
    <vehicle id="153" depart="107.10">
        <route edges="I6H6 H6G6 G6F6 F6F5"/>
    </vehicle>
    <vehicle id="154" depart="107.80">
        <route edges="I7I8 I8J8 J8J7 J7J6 J6J5 J5J4 J4J3 J3J2 J2J1 J1I1 I1H1 H1H2"/>
    </vehicle>
    <vehicle id="155" depart="108.50">
        <route edges="J3J4 J4I4"/>
    </vehicle>
    <vehicle id="156" depart="109.20">
        <route edges="B3A3 A3A4 A4B4 B4C4 C4D4 D4E4 E4F4 F4G4 G4G3 G3H3 H3I3 I3J3"/>
    </vehicle>
    <vehicle id="157" depart="109.90">
        <route edges="I8J8 J8J7 J7J6 J6J5 J5J4 J4J3 J3I3 I3I2"/>
    </vehicle>
    <vehicle id="158" depart="110.60">
        <route edges="B3A3 A3A4 A4A5 A5B5 B5C5 C5C4 C4B4"/>
    </vehicle>
    <vehicle id="159" depart="111.30">
        <route edges="F3G3 G3G4 G4H4 H4I4 I4I3"/>
    </vehicle>
    <vehicle id="160" depart="112.00">
        <route edges="J5I5 I5H5 H5G5 G5F5 F5E5 E5D5 D5C5 C5C4 C4C3 C3C2 C2D2"/>
    </vehicle>
    <vehicle id="161" depart="112.70">
        <route edges="H9G9 G9G8 G8G7 G7H7 H7I7 I7J7 J7J8"/>
    </vehicle>
    <vehicle id="162" depart="113.40">
        <route edges="D4C4 C4C5 C5D5 D5E5 E5F5 F5G5 G5H5 H5H4 H4G4"/>
    </vehicle>
    <vehicle id="163" depart="114.10">
        <route edges="F8E8 E8E7 E7E6 E6E5 E5E4 E4E3 E3D3 D3C3 C3C4"/>
    </vehicle>
    <vehicle id="164" depart="114.80">
        <route edges="B2A2 A2A3 A3B3 B3C3 C3D3 D3E3 E3F3 F3G3 G3H3 H3H2 H2H1 H1G1"/>
    </vehicle>
    <vehicle id="165" depart="115.50">
        <route edges="B4A4 A4A5 A5A6 A6B6 B6B5"/>
    </vehicle>
    <vehicle id="166" depart="116.20">
        <route edges="C9B9 B9B8 B8B7 B7B6 B6B5 B5B4 B4B3 B3B2 B2B1 B1C1 C1D1 D1E1"/>
    </vehicle>
    <vehicle id="167" depart="116.90">
        <route edges="C8D8 D8E8 E8E7 E7D7 D7D8 D8C8"/>
    </vehicle>
    <vehicle id="168" depart="117.60">
        <route edges="A0B0 B0C0 C0D0 D0E0 E0F0 F0G0 G0G1 G1G2 G2G3 G3G4 G4G5"/>
    </vehicle>
    <vehicle id="169" depart="118.30">
        <route edges="E8D8 D8D7 D7E7 E7F7 F7G7 G7H7 H7I7 I7J7 J7J6"/>
    </vehicle>
    <vehicle id="170" depart="119.00">
        <route edges="E9E8 E8E7 E7E6 E6F6 F6F5 F5E5"/>
    </vehicle>
    <vehicle id="171" depart="119.70">
        <route edges="B1B2 B2B3 B3C3 C3C4"/>
    </vehicle>
    <vehicle id="172" depart="120.40">
        <route edges="A6A5 A5A4 A4B4 B4C4 C4D4 D4E4 E4F4 F4G4 G4H4 H4I4 I4J4 J4J5"/>
    </vehicle>
    <vehicle id="173" depart="121.10">
        <route edges="F8F7 F7F6 F6F5 F5F4 F4F3 F3F2 F2E2 E2D2 D2C2 C2C1 C1C0 C0D0"/>
    </vehicle>
    <vehicle id="174" depart="121.80">
        <route edges="I5I6 I6H6 H6G6 G6F6 F6E6 E6D6 D6D5 D5D4 D4D3 D3D2 D2D1 D1C1 C1B1 B1A1 A1A2"/>
    </vehicle>
    <vehicle id="175" depart="122.50">
        <route edges="H4G4 G4F4 F4E4 E4D4 D4C4 C4C3 C3C2 C2D2"/>
    </vehicle>
    <vehicle id="176" depart="123.20">
        <route edges="B7A7 A7A8 A8B8 B8B7 B7B6 B6A6 A6A7 A7B7"/>
    </vehicle>
    <vehicle id="177" depart="123.90">
        <route edges="J0I0 I0H0 H0G0 G0F0 F0E0 E0D0 D0C0 C0C1 C1C2 C2C3 C3C4 C4C5 C5C6 C6C7 C7C8 C8D8"/>
    </vehicle>
    <vehicle id="178" depart="124.60">
        <route edges="C6D6 D6E6 E6F6 F6G6 G6H6 H6H7 H7H8 H8I8 I8I7"/>
    </vehicle>
    <vehicle id="179" depart="125.30">
        <route edges="D9C9 C9C8 C8C7 C7D7 D7E7 E7F7 F7F6 F6E6"/>
    </vehicle>
    <vehicle id="180" depart="126.00">
        <route edges="J5J6 J6J7 J7J8 J8J9 J9I9"/>
    </vehicle>
    <vehicle id="181" depart="126.70">
        <route edges="G3G4 G4G5 G5H5 H5I5 I5J5 J5J6"/>
    </vehicle>
    <vehicle id="182" depart="127.40">
        <route edges="B5C5 C5D5 D5E5 E5E6 E6E7 E7D7"/>
    </vehicle>
    <vehicle id="183" depart="128.10">
        <route edges="C7C6 C6D6 D6D7 D7E7 E7F7 F7G7 G7H7"/>
    </vehicle>
    <vehicle id="184" depart="128.80">
        <route edges="D0C0 C0C1 C1C2 C2D2 D2E2 E2F2 F2G2 G2H2 H2I2 I2J2 J2J1"/>
    </vehicle>
    <vehicle id="185" depart="129.50">
        <route edges="H8H7 H7G7 G7F7 F7E7 E7D7 D7C7 C7B7 B7B8 B8B9 B9C9"/>
    </vehicle>
    <vehicle id="186" depart="130.20">
        <route edges="E1D1 D1D2 D2D3 D3D4 D4D5 D5E5 E5F5 F5G5 G5H5"/>
    </vehicle>
    <vehicle id="187" depart="130.90">
        <route edges="G7F7 F7E7 E7D7 D7D6 D6D5 D5D4 D4D3 D3D2"/>
    </vehicle>
    <vehicle id="188" depart="131.60">
        <route edges="I1I2 I2H2 H2G2 G2F2 F2E2 E2D2 D2C2 C2B2 B2B3 B3B4 B4B5 B5B6 B6C6"/>
    </vehicle>
    <vehicle id="189" depart="132.30">
        <route edges="C1C2 C2D2 D2E2 E2E1 E1E0 E0F0 F0G0 G0H0 H0I0 I0J0"/>
    </vehicle>
    <vehicle id="190" depart="133.00">
        <route edges="H3G3 G3G2 G2F2 F2E2 E2E3 E3F3"/>
    </vehicle>
    <vehicle id="191" depart="133.70">
        <route edges="E9F9 F9F8 F8F7 F7F6 F6E6 E6D6 D6C6 C6B6 B6B5 B5B4"/>
    </vehicle>
    <vehicle id="192" depart="134.40">
        <route edges="F5G5 G5G4 G4F4 F4E4 E4E5 E5E6 E6F6"/>
    </vehicle>
    <vehicle id="193" depart="135.10">
        <route edges="H7H8 H8I8 I8I7 I7H7"/>
    </vehicle>
    <vehicle id="194" depart="135.80">
        <route edges="G0H0 H0H1 H1H2 H2H3 H3G3 G3F3 F3E3 E3D3 D3C3 C3B3 B3B2"/>
    </vehicle>
    <vehicle id="195" depart="136.50">
        <route edges="I3I2 I2H2 H2G2 G2G3 G3G4 G4F4 F4E4 E4D4"/>
    </vehicle>
    <vehicle id="196" depart="137.20">
        <route edges="E1E0 E0F0 F0G0 G0H0 H0I0 I0I1 I1I2 I2I3 I3I4 I4I5 I5I6 I6I7 I7I8 I8I9 I9J9 J9J8"/>
    </vehicle>
    <vehicle id="197" depart="137.90">
        <route edges="G5H5 H5H4 H4H3 H3G3 G3F3 F3F4"/>
    </vehicle>
    <vehicle id="198" depart="138.60">
        <route edges="H7G7 G7F7 F7E7 E7D7 D7C7 C7C6 C6C5 C5C4 C4C3 C3C2 C2C1 C1C0"/>
    </vehicle>
    <vehicle id="199" depart="139.30">
        <route edges="C2C3 C3C4 C4B4 B4B5 B5C5 C5C4"/>
    </vehicle>
    <vehicle id="200" depart="140.00">
        <route edges="E0D0 D0D1 D1E1"/>
    </vehicle>
    <vehicle id="201" depart="140.70">
        <route edges="H7G7 G7F7 F7E7 E7D7 D7C7 C7C6 C6C5 C5C4 C4C3 C3C2 C2C1 C1C0 C0B0 B0A0 A0A1"/>
    </vehicle>
    <vehicle id="202" depart="141.40">
        <route edges="J1J2 J2J3 J3J4 J4J5 J5J6 J6I6 I6H6 H6G6 G6F6 F6E6 E6D6 D6C6"/>
    </vehicle>
    <vehicle id="203" depart="142.10">
        <route edges="I5H5"/>
    </vehicle>
    <vehicle id="204" depart="142.80">
        <route edges="H4I4 I4I5 I5I6 I6I7 I7I8 I8H8 H8G8 G8F8 F8E8 E8D8 D8C8 C8B8 B8A8 A8A9"/>
    </vehicle>
    <vehicle id="205" depart="143.50">
        <route edges="H4H5 H5H6 H6H7 H7H8 H8H9 H9G9 G9F9 F9E9 E9D9 D9C9 C9B9"/>
    </vehicle>
    <vehicle id="206" depart="144.20">
        <route edges="J4J3 J3I3 I3H3 H3G3 G3F3 F3E3 E3D3 D3C3 C3C4"/>
    </vehicle>
    <vehicle id="207" depart="144.90">
        <route edges="F8G8 G8G9 G9H9 H9I9"/>
    </vehicle>
    <vehicle id="208" depart="145.60">
        <route edges="G7H7 H7H6 H6G6 G6F6 F6E6 E6D6 D6C6 C6C7 C7D7"/>
    </vehicle>
    <vehicle id="209" depart="146.30">
        <route edges="F2F3 F3F4 F4F5 F5F6 F6E6 E6D6 D6C6 C6B6 B6A6 A6A5"/>
    </vehicle>
    <vehicle id="210" depart="147.00">
        <route edges="B8A8 A8A7 A7A6 A6A5 A5A4 A4B4 B4C4 C4D4 D4E4 E4F4 F4G4 G4G3 G3F3"/>
    </vehicle>
    <vehicle id="211" depart="147.70">
        <route edges="A8A7 A7B7 B7C7 C7D7 D7E7 E7F7 F7G7"/>
    </vehicle>
    <vehicle id="212" depart="148.40">
        <route edges="E5D5 D5D6 D6D7 D7E7 E7F7 F7G7 G7H7 H7H8 H8G8"/>
    </vehicle>
    <vehicle id="213" depart="149.10">
        <route edges="I9I8 I8H8 H8G8"/>
    </vehicle>
    <vehicle id="214" depart="149.80">
        <route edges="G9F9 F9E9 E9D9 D9C9"/>
    </vehicle>
    <vehicle id="215" depart="150.50">
        <route edges="B5C5 C5D5 D5E5 E5F5 F5G5 G5H5 H5I5 I5I6 I6I7 I7I8 I8I9 I9H9"/>
    </vehicle>
    <vehicle id="216" depart="151.20">
        <route edges="H4H5 H5I5 I5I4 I4H4 H4G4"/>
    </vehicle>
    <vehicle id="217" depart="151.90">
        <route edges="H0G0 G0G1 G1G2 G2G3 G3G4 G4G5 G5H5 H5H6 H6G6"/>
    </vehicle>
    <vehicle id="218" depart="152.60">
        <route edges="F9E9 E9E8 E8E7 E7E6 E6F6 F6G6 G6H6 H6I6 I6I5 I5I4 I4I3 I3H3"/>
    </vehicle>
    <vehicle id="219" depart="153.30">
        <route edges="I3I4 I4I5 I5I6 I6H6 H6H7 H7I7 I7I6"/>
    </vehicle>
    <vehicle id="220" depart="154.00">
        <route edges="D3C3 C3C4 C4C5 C5C6 C6C7 C7D7 D7E7 E7E6"/>
    </vehicle>
    <vehicle id="221" depart="154.70">
        <route edges="B2C2 C2C3 C3C4 C4C5 C5C6 C6B6 B6B7 B7C7"/>
    </vehicle>
    <vehicle id="222" depart="155.40">
        <route edges="I1H1 H1G1 G1F1 F1E1 E1E2 E2E3 E3E4 E4E5 E5F5"/>
    </vehicle>
    <vehicle id="223" depart="156.10">
        <route edges="H7H8 H8H9 H9G9 G9F9 F9E9 E9D9"/>
    </vehicle>
    <vehicle id="224" depart="156.80">
        <route edges="I7H7 H7H8 H8I8 I8I7 I7J7"/>
    </vehicle>
    <vehicle id="225" depart="157.50">
        <route edges="H0G0 G0F0 F0E0 E0D0 D0D1 D1D2 D2D3"/>
    </vehicle>
    <vehicle id="226" depart="158.20">
        <route edges="I0J0 J0J1 J1J2 J2J3 J3J4 J4I4 I4H4 H4G4 G4F4 F4E4 E4D4 D4C4 C4B4 B4A4 A4A5 A5A6 A6A7 A7B7"/>
    </vehicle>
    <vehicle id="227" depart="158.90">
        <route edges="I2I3 I3I4 I4I5 I5I6 I6I7 I7I8 I8I9 I9H9 H9G9 G9F9 F9E9 E9E8"/>
    </vehicle>
    <vehicle id="228" depart="159.60">
        <route edges="J8J7 J7J6 J6I6 I6I5 I5J5"/>
    </vehicle>
    <vehicle id="229" depart="160.30">
        <route edges="G6H6 H6I6 I6I5 I5I4 I4I3 I3J3 J3J4"/>
    </vehicle>
    <vehicle id="230" depart="161.00">
        <route edges="D5E5 E5E6 E6E7 E7D7 D7C7"/>
    </vehicle>
    <vehicle id="231" depart="161.70">
        <route edges="H1I1 I1I2 I2I3 I3I4 I4H4 H4G4 G4F4 F4E4 E4D4 D4C4 C4B4 B4A4 A4A3"/>
    </vehicle>
    <vehicle id="232" depart="162.40">
        <route edges="I6J6 J6J7 J7J8 J8I8 I8H8 H8G8 G8F8 F8F9"/>
    </vehicle>
    <vehicle id="233" depart="163.10">
        <route edges="F8E8 E8E7 E7E6 E6E5 E5D5 D5D6"/>
    </vehicle>
    <vehicle id="234" depart="163.80">
        <route edges="H8H9 H9G9 G9G8 G8G7 G7G6 G6G5 G5F5 F5E5"/>
    </vehicle>
    <vehicle id="235" depart="164.50">
        <route edges="I0H0 H0G0 G0F0 F0E0 E0D0 D0C0 C0C1 C1C2 C2C3 C3C4 C4C5 C5C6 C6C7 C7B7"/>
    </vehicle>
    <vehicle id="236" depart="165.20">
        <route edges="G9G8 G8G7 G7G6 G6G5 G5G4 G4G3 G3F3 F3F2 F2G2"/>
    </vehicle>
    <vehicle id="237" depart="165.90">
        <route edges="B8C8 C8D8 D8E8 E8F8 F8G8 G8H8 H8I8 I8I7"/>
    </vehicle>
    <vehicle id="238" depart="166.60">
        <route edges="I6J6 J6J5 J5J4 J4J3 J3J2 J2J1 J1J0 J0I0"/>
    </vehicle>