<?xml version="1.0" encoding="UTF-8"?>

<!-- generated on 2021-07-13 20:50:41 by Eclipse SUMO duarouter Version 1.9.2
<configuration xmlns:xsi="http://www.w3.org/2001/XMLSchema-instance" xsi:noNamespaceSchemaLocation="http://sumo.dlr.de/xsd/duarouterConfiguration.xsd">

    <input>
        <net-file value="medium_grid/u_map.net.xml"/>
        <route-files value="trips.trips.xml"/>
    </input>

    <output>
        <output-file value="medium_grid/training/route_2000_03_6.rou.xml"/>
        <alternatives-output value="medium_grid/training/route_2000_03_6.rou.alt.xml"/>
    </output>

    <time>
        <begin value="0"/>
        <end value="2000"/>
    </time>

    <report>
        <no-warnings value="true"/>
        <ignore-errors value="true"/>
        <no-step-log value="true"/>
    </report>

</configuration>
-->

<routes xmlns:xsi="http://www.w3.org/2001/XMLSchema-instance" xsi:noNamespaceSchemaLocation="http://sumo.dlr.de/xsd/routes_file.xsd">
    <vehicle id="0" depart="0.00">
        <route edges="I7J7 J7J6 J6J5 J5I5 I5H5 H5G5 G5F5 F5E5 E5D5 D5C5"/>
    </vehicle>
    <vehicle id="1" depart="0.30">
        <route edges="I8J8 J8J7 J7I7 I7H7 H7G7 G7F7 F7E7 E7D7 D7C7 C7C8 C8C9 C9D9"/>
    </vehicle>
    <vehicle id="2" depart="0.60">
        <route edges="F5F4 F4E4 E4E5 E5E6 E6E7 E7D7"/>
    </vehicle>
    <vehicle id="3" depart="0.90">
        <route edges="I4J4 J4J5 J5J6 J6J7 J7I7 I7H7 H7G7 G7F7 F7E7"/>
    </vehicle>
    <vehicle id="4" depart="1.20">
        <route edges="G2F2 F2E2 E2D2 D2D3"/>
    </vehicle>
    <vehicle id="5" depart="1.50">
        <route edges="G3H3 H3H2 H2G2 G2F2 F2E2 E2D2 D2D3 D3E3"/>
    </vehicle>
    <vehicle id="6" depart="1.80">
        <route edges="I6H6 H6G6 G6F6 F6E6 E6E5 E5E4 E4E3 E3F3"/>
    </vehicle>
    <vehicle id="7" depart="2.10">
        <route edges="C5C6 C6B6 B6B5 B5B4 B4B3 B3C3"/>
    </vehicle>
    <vehicle id="8" depart="2.40">
        <route edges="E2D2 D2D3 D3D4 D4D5 D5D6 D6D7 D7E7 E7F7 F7G7 G7H7 H7I7"/>
    </vehicle>
    <vehicle id="9" depart="2.70">
        <route edges="D3D4 D4E4 E4F4 F4G4 G4H4 H4I4 I4I5"/>
    </vehicle>
    <vehicle id="10" depart="3.00">
        <route edges="B1C1 C1C2 C2C3 C3C4 C4C5 C5C6 C6C7 C7C8 C8C9 C9D9 D9E9 E9F9"/>
    </vehicle>
    <vehicle id="11" depart="3.30">
        <route edges="H3G3 G3F3 F3E3 E3D3 D3C3 C3C4 C4D4"/>
    </vehicle>
    <vehicle id="12" depart="3.60">
        <route edges="B5C5 C5C4 C4C3 C3C2 C2C1 C1C0 C0D0 D0E0 E0F0 F0G0 G0H0"/>
    </vehicle>
    <vehicle id="13" depart="3.90">
        <route edges="H5G5 G5F5 F5E5 E5D5 D5C5 C5B5 B5B6 B6B7 B7C7"/>
    </vehicle>
    <vehicle id="14" depart="4.20">
        <route edges="C5C4 C4B4 B4A4 A4A3"/>
    </vehicle>
    <vehicle id="15" depart="4.50">
        <route edges="F2F1 F1E1 E1E2 E2E3 E3E4"/>
    </vehicle>
    <vehicle id="16" depart="4.80">
        <route edges="E2E3 E3E4 E4E5 E5E6 E6E7 E7E8 E8E9 E9D9 D9C9 C9C8"/>
    </vehicle>
    <vehicle id="17" depart="5.10">
        <route edges="B0A0 A0A1 A1A2 A2A3 A3B3 B3C3 C3C4 C4B4"/>
    </vehicle>
    <vehicle id="18" depart="5.40">
        <route edges="B3B4 B4B5 B5B6 B6C6 C6D6"/>
    </vehicle>
    <vehicle id="19" depart="5.70">
        <route edges="C4D4 D4E4 E4F4 F4G4 G4H4 H4I4 I4I5"/>
    </vehicle>
    <vehicle id="20" depart="6.00">
        <route edges="C0C1 C1C2 C2C3 C3C4 C4C5 C5C6 C6D6 D6E6 E6F6 F6F7 F7F8 F8F9"/>
    </vehicle>
    <vehicle id="21" depart="6.30">
        <route edges="J8I8 I8H8 H8G8 G8F8 F8E8 E8E7 E7E6 E6E5 E5E4 E4E3 E3D3 D3C3 C3C4"/>
    </vehicle>
    <vehicle id="22" depart="6.60">
        <route edges="D8C8 C8C7 C7D7 D7E7 E7F7 F7G7 G7G8 G8G9 G9F9"/>
    </vehicle>
    <vehicle id="23" depart="6.90">
        <route edges="H5G5 G5F5 F5E5 E5D5 D5C5 C5B5 B5B6 B6C6"/>
    </vehicle>
    <vehicle id="24" depart="7.20">
        <route edges="D9E9 E9F9 F9F8 F8F7 F7F6 F6F5 F5F4 F4F3 F3F2 F2F1 F1F0 F0E0 E0E1"/>
    </vehicle>
    <vehicle id="25" depart="7.50">
        <route edges="J9I9 I9H9 H9H8 H8H7 H7H6 H6I6"/>
    </vehicle>
    <vehicle id="26" depart="7.80">
        <route edges="A7B7 B7B8 B8C8 C8C7 C7B7"/>
    </vehicle>
    <vehicle id="27" depart="8.10">
        <route edges="D0C0 C0B0 B0B1 B1B2 B2B3 B3C3 C3C2"/>
    </vehicle>
    <vehicle id="28" depart="8.40">
        <route edges="E2D2 D2D1 D1C1 C1B1 B1B2"/>
    </vehicle>
    <vehicle id="29" depart="8.70">
        <route edges="E8E9 E9D9 D9C9 C9B9 B9A9 A9A8 A8A7 A7A6 A6A5 A5A4 A4A3 A3A2 A2A1 A1A0 A0B0"/>
    </vehicle>
    <vehicle id="30" depart="9.00">
        <route edges="B4A4 A4A5 A5A6 A6A7 A7A8 A8B8 B8B9 B9A9"/>
    </vehicle>
    <vehicle id="31" depart="9.30">
        <route edges="G5G4 G4F4 F4F5 F5F6 F6G6 G6G7 G7F7"/>
    </vehicle>
    <vehicle id="32" depart="9.60">
        <route edges="I4J4 J4J3 J3I3 I3H3 H3G3 G3F3 F3E3 E3D3 D3C3 C3B3 B3A3 A3A2"/>
    </vehicle>
    <vehicle id="33" depart="9.90">
        <route edges="A4B4 B4C4 C4D4 D4E4 E4F4 F4F5 F5F6 F6F7 F7F8 F8G8 G8H8 H8H7"/>
    </vehicle>
    <vehicle id="34" depart="10.20">
        <route edges="A6B6 B6B7 B7B8 B8B9 B9C9"/>
    </vehicle>
    <vehicle id="35" depart="10.50">
        <route edges="A2A3 A3B3 B3C3 C3D3 D3E3 E3F3 F3G3 G3H3 H3H4 H4H5"/>
    </vehicle>
    <vehicle id="36" depart="10.80">
        <route edges="I7J7 J7J6 J6I6 I6H6 H6G6 G6F6 F6E6 E6D6 D6C6 C6B6 B6B7 B7C7"/>
    </vehicle>
    <vehicle id="37" depart="11.10">
        <route edges="I5J5 J5J4 J4J3 J3J2 J2J1 J1J0 J0I0 I0H0 H0G0 G0F0 F0E0"/>
    </vehicle>
    <vehicle id="38" depart="11.40">
        <route edges="F9E9 E9D9 D9D8 D8D7 D7D6 D6D5 D5D4 D4D3 D3D2"/>
    </vehicle>
    <vehicle id="39" depart="11.70">
        <route edges="G2G1 G1F1 F1F2 F2F3 F3F4 F4F5 F5F6 F6F7 F7F8 F8F9 F9E9 E9D9 D9C9 C9B9 B9B8"/>
    </vehicle>
    <vehicle id="40" depart="12.00">
        <route edges="E2F2 F2G2 G2H2 H2I2 I2J2 J2J3 J3J4 J4I4"/>
    </vehicle>
    <vehicle id="41" depart="12.30">
        <route edges="I6H6 H6H5 H5H4 H4H3 H3H2 H2H1 H1I1 I1J1 J1J0 J0I0"/>
    </vehicle>
    <vehicle id="42" depart="12.60">
        <route edges="E3D3 D3D2 D2D1 D1E1 E1F1 F1F0 F0E0"/>
    </vehicle>
    <vehicle id="43" depart="12.90">
        <route edges="J8J7 J7J6 J6J5 J5J4 J4J3 J3I3 I3H3 H3G3 G3F3 F3E3 E3D3 D3C3"/>
    </vehicle>
    <vehicle id="44" depart="13.20">
        <route edges="J1J2 J2J3 J3J4 J4J5 J5J6 J6J7 J7J8 J8I8 I8H8 H8G8 G8F8 F8E8 E8D8 D8C8 C8C7"/>
    </vehicle>
    <vehicle id="45" depart="13.50">
        <route edges="E1D1 D1D2 D2E2 E2F2 F2G2 G2H2 H2I2 I2J2 J2J1 J1I1"/>
    </vehicle>
    <vehicle id="46" depart="13.80">
        <route edges="B0A0 A0A1 A1A2 A2B2 B2C2"/>
    </vehicle>
    <vehicle id="47" depart="14.10">
        <route edges="J8I8 I8I7 I7I6 I6I5 I5I4 I4I3 I3H3 H3G3 G3F3 F3E3"/>
    </vehicle>
    <vehicle id="48" depart="14.40">
        <route edges="C5B5 B5B6 B6B7 B7C7 C7D7 D7D8"/>
    </vehicle>
    <vehicle id="49" depart="14.70">
        <route edges="F9G9 G9G8 G8G7 G7G6 G6F6 F6E6 E6D6 D6C6"/>
    </vehicle>
    <vehicle id="50" depart="15.00">
        <route edges="F0F1 F1F2 F2F3 F3F4 F4F5 F5F6 F6F7 F7F8 F8F9 F9E9 E9D9 D9C9"/>
    </vehicle>
    <vehicle id="51" depart="15.30">
        <route edges="A1A2 A2B2 B2C2 C2C1 C1C0 C0D0 D0E0 E0F0 F0G0"/>
    </vehicle>
    <vehicle id="52" depart="15.60">
        <route edges="C5B5 B5B4 B4C4 C4D4 D4E4"/>
    </vehicle>
    <vehicle id="53" depart="15.90">
        <route edges="H3H4 H4H5 H5H6 H6H7 H7H8 H8H9 H9G9 G9F9 F9E9 E9D9"/>
    </vehicle>
    <vehicle id="54" depart="16.20">
        <route edges="A7B7 B7C7 C7C8"/>
    </vehicle>
    <vehicle id="55" depart="16.50">
        <route edges="E1E0 E0D0 D0D1 D1D2 D2D3 D3D4 D4C4"/>
    </vehicle>
    <vehicle id="56" depart="16.80">
        <route edges="J3J4 J4J5 J5J6 J6I6 I6H6 H6H7 H7I7"/>
    </vehicle>
    <vehicle id="57" depart="17.10">
        <route edges="B6C6 C6C5 C5C4 C4C3 C3C2 C2D2 D2E2 E2F2 F2G2 G2G3"/>
    </vehicle>
    <vehicle id="58" depart="17.40">
        <route edges="G7G6 G6G5 G5F5 F5E5 E5D5 D5D4 D4E4"/>
    </vehicle>
    <vehicle id="59" depart="17.70">
        <route edges="F3F4 F4F5 F5F6 F6F7 F7F8 F8F9 F9G9 G9G8"/>
    </vehicle>
    <vehicle id="60" depart="18.00">
        <route edges="C1C2 C2D2 D2E2 E2F2 F2G2 G2H2 H2I2 I2J2 J2J1 J1J0"/>
    </vehicle>
    <vehicle id="61" depart="18.30">
        <route edges="G7H7 H7H6 H6G6 G6F6 F6E6 E6E7 E7F7"/>
    </vehicle>
    <vehicle id="62" depart="18.60">
        <route edges="E8E9 E9F9 F9G9 G9G8 G8G7 G7G6 G6G5 G5H5 H5I5"/>
    </vehicle>
    <vehicle id="63" depart="18.90">
        <route edges="J1J0 J0I0 I0H0 H0G0 G0F0 F0E0 E0D0 D0C0 C0B0"/>
    </vehicle>
    <vehicle id="64" depart="19.20">
        <route edges="I5J5 J5J4 J4J3 J3I3 I3H3 H3G3 G3F3 F3E3 E3D3 D3C3 C3B3 B3A3 A3A4"/>
    </vehicle>
    <vehicle id="65" depart="19.50">
        <route edges="C8D8 D8D7 D7C7 C7B7 B7A7 A7A8 A8B8"/>
    </vehicle>
    <vehicle id="66" depart="19.80">
        <route edges="B1C1 C1D1 D1E1 E1F1 F1G1 G1G2 G2G3 G3G4 G4G5 G5G6 G6F6"/>
    </vehicle>
    <vehicle id="67" depart="20.10">
        <route edges="E4E5 E5D5 D5C5 C5B5 B5B4 B4B3 B3B2 B2C2"/>
    </vehicle>
    <vehicle id="68" depart="20.40">
        <route edges="I7J7 J7J6 J6J5 J5I5 I5H5 H5G5 G5F5 F5E5 E5D5 D5C5 C5C6 C6D6"/>
    </vehicle>
    <vehicle id="69" depart="20.70">
        <route edges="D5C5 C5C6 C6C7 C7C8 C8C9 C9D9 D9E9 E9F9 F9G9 G9H9 H9I9 I9J9 J9J8"/>
    </vehicle>
    <vehicle id="70" depart="21.00">
        <route edges="E2E1 E1E0 E0F0 F0G0 G0H0 H0I0"/>
    </vehicle>
    <vehicle id="71" depart="21.30">
        <route edges="E3F3 F3F4 F4E4 E4D4 D4D5"/>
    </vehicle>
    <vehicle id="72" depart="21.60">
        <route edges="H0H1 H1H2 H2H3 H3G3 G3F3 F3F4"/>
    </vehicle>
    <vehicle id="73" depart="21.90">
        <route edges="D7C7 C7C6 C6C5 C5C4 C4D4 D4E4 E4F4 F4F3 F3E3"/>
    </vehicle>
    <vehicle id="74" depart="22.20">
        <route edges="A0B0 B0B1 B1B2 B2B3 B3B4 B4B5 B5B6 B6C6 C6D6 D6E6 E6E5"/>
    </vehicle>
    <vehicle id="75" depart="22.50">
        <route edges="A9B9 B9C9 C9C8 C8C7 C7C6 C6C5 C5C4 C4C3 C3C2 C2C1 C1B1 B1B2"/>
    </vehicle>
    <vehicle id="76" depart="22.80">
        <route edges="D1D0 D0E0 E0F0 F0G0 G0H0 H0H1 H1H2 H2H3 H3H4 H4H5 H5H6 H6H7 H7G7"/>
    </vehicle>
    <vehicle id="77" depart="23.10">
        <route edges="E5D5 D5D6 D6E6 E6F6 F6G6 G6H6 H6I6 I6J6 J6J5"/>
    </vehicle>
    <vehicle id="78" depart="23.40">
        <route edges="E9F9 F9F8 F8F7 F7F6 F6F5 F5F4 F4E4 E4D4 D4C4 C4B4 B4A4 A4A5"/>
    </vehicle>
    <vehicle id="79" depart="23.70">
        <route edges="I1H1 H1G1 G1F1 F1E1 E1D1 D1D2 D2D3 D3D4 D4D5 D5E5"/>
    </vehicle>
    <vehicle id="80" depart="24.00">
        <route edges="I5H5 H5G5 G5F5 F5E5 E5E6 E6D6"/>
    </vehicle>
    <vehicle id="81" depart="24.30">
        <route edges="A4B4 B4C4 C4C3 C3C2 C2C1 C1C0 C0B0"/>
    </vehicle>
    <vehicle id="82" depart="24.60">
        <route edges="F6G6 G6G5 G5G4 G4G3 G3G2"/>
    </vehicle>
    <vehicle id="83" depart="24.90">
        <route edges="E8E9 E9D9 D9C9 C9B9 B9A9 A9A8 A8A7 A7A6 A6A5 A5A4 A4A3 A3A2 A2A1"/>
    </vehicle>
    <vehicle id="84" depart="25.20">
        <route edges="H1H2 H2H3 H3H4 H4G4 G4F4 F4E4 E4D4 D4D5"/>
    </vehicle>
    <vehicle id="85" depart="25.50">
        <route edges="B5A5 A5A6 A6B6 B6C6 C6D6 D6D7"/>
    </vehicle>
    <vehicle id="86" depart="25.80">
        <route edges="H2H1 H1G1 G1F1 F1E1 E1D1 D1C1 C1C2 C2C3 C3C4 C4C5 C5C6 C6D6"/>
    </vehicle>
    <vehicle id="87" depart="26.10">
        <route edges="F2F3 F3F4 F4F5 F5G5 G5G6"/>
    </vehicle>
    <vehicle id="88" depart="26.40">
        <route edges="A6A7 A7B7 B7C7 C7C6 C6D6"/>
    </vehicle>
    <vehicle id="89" depart="26.70">
        <route edges="C8C9 C9D9 D9D8 D8D7 D7D6 D6D5 D5D4 D4D3 D3C3 C3C2"/>
    </vehicle>
    <vehicle id="90" depart="27.00">
        <route edges="F5G5 G5G6 G6F6 F6E6 E6D6 D6D7 D7E7"/>
    </vehicle>
    <vehicle id="91" depart="27.30">
        <route edges="B4C4 C4D4 D4E4 E4F4 F4G4 G4G5 G5H5"/>
    </vehicle>
    <vehicle id="92" depart="27.60">
        <route edges="G3F3 F3F4 F4F5 F5F6 F6F7 F7F8 F8F9 F9E9 E9D9 D9C9"/>
    </vehicle>
    <vehicle id="93" depart="27.90">
        <route edges="I5H5 H5G5 G5F5 F5E5 E5D5 D5D4 D4D3 D3D2 D2D1 D1D0 D0E0"/>
    </vehicle>
    <vehicle id="94" depart="28.20">
        <route edges="D8E8 E8E7 E7E6 E6E5 E5E4 E4E3 E3E2 E2E1 E1D1 D1C1"/>
    </vehicle>
    <vehicle id="95" depart="28.50">
        <route edges="D4D3"/>
    </vehicle>
    <vehicle id="96" depart="28.80">
        <route edges="I5I4 I4I3 I3H3 H3G3 G3F3 F3E3 E3D3 D3C3 C3C2 C2C1"/>
    </vehicle>
    <vehicle id="97" depart="29.10">
        <route edges="H8H7 H7H6 H6G6 G6F6 F6E6 E6E7"/>
    </vehicle>
    <vehicle id="98" depart="29.40">
        <route edges="E6D6 D6C6 C6B6 B6B5 B5B4 B4B3 B3B2 B2B1"/>
    </vehicle>
    <vehicle id="99" depart="29.70">
        <route edges="B6B5 B5B4 B4B3 B3B2 B2B1 B1C1 C1D1 D1E1 E1F1"/>
    </vehicle>
    <vehicle id="100" depart="30.00">
        <route edges="H4G4 G4F4 F4E4 E4E3 E3E2 E2E1 E1F1"/>
    </vehicle>
    <vehicle id="101" depart="30.30">
        <route edges="H7H6 H6H5"/>
    </vehicle>
    <vehicle id="102" depart="30.60">
        <route edges="J0J1 J1J2 J2J3 J3J4 J4J5 J5J6 J6J7 J7I7 I7H7 H7G7 G7F7 F7E7 E7D7 D7C7 C7B7 B7B8"/>
    </vehicle>
    <vehicle id="103" depart="30.90">
        <route edges="E2D2 D2C2 C2B2 B2A2 A2A3 A3B3"/>
    </vehicle>
    <vehicle id="104" depart="31.20">
        <route edges="A2B2 B2B3 B3B4 B4B5 B5B6 B6A6 A6A7 A7B7"/>
    </vehicle>
    <vehicle id="105" depart="31.50">
        <route edges="C2B2 B2B1 B1B0 B0C0"/>
    </vehicle>
    <vehicle id="106" depart="31.80">
        <route edges="A9A8 A8B8 B8C8 C8D8 D8E8 E8E9 E9F9 F9G9 G9H9 H9I9 I9J9"/>
    </vehicle>
    <vehicle id="107" depart="32.10">
        <route edges="J7J8 J8I8 I8H8 H8G8 G8F8 F8E8 E8E7 E7E6 E6E5 E5E4 E4E3 E3E2 E2F2"/>
    </vehicle>
    <vehicle id="108" depart="32.40">
        <route edges="D9C9 C9B9 B9A9"/>
    </vehicle>
    <vehicle id="109" depart="32.70">
        <route edges="F7G7 G7H7 H7I7 I7I6 I6I5 I5I4 I4H4"/>
    </vehicle>
    <vehicle id="110" depart="33.00">
        <route edges="A7B7 B7C7 C7D7 D7E7 E7F7 F7G7"/>
    </vehicle>
    <vehicle id="111" depart="33.30">
        <route edges="H2G2 G2G3 G3H3 H3H2"/>
    </vehicle>
    <vehicle id="112" depart="33.60">
        <route edges="C5C4 C4D4 D4E4 E4E3"/>
    </vehicle>
    <vehicle id="113" depart="33.90">
        <route edges="J7I7 I7I6 I6J6 J6J7 J7J8"/>
    </vehicle>
    <vehicle id="114" depart="34.20">
        <route edges="A3B3 B3C3 C3D3 D3E3 E3F3 F3F4 F4F5 F5F6 F6G6 G6H6 H6I6"/>
    </vehicle>
    <vehicle id="115" depart="34.50">
        <route edges="D3D4 D4D5 D5C5"/>
    </vehicle>
    <vehicle id="116" depart="34.80">
        <route edges="D1C1 C1B1 B1A1 A1A2 A2A3 A3A4 A4A5 A5A6 A6B6"/>
    </vehicle>
    <vehicle id="117" depart="35.10">
        <route edges="G2G1 G1F1 F1E1 E1D1 D1D0 D0E0"/>
    </vehicle>
    <vehicle id="118" depart="35.40">
        <route edges="B0A0 A0A1 A1A2 A2A3 A3A4 A4A5 A5A6 A6A7 A7B7 B7C7 C7D7 D7E7"/>
    </vehicle>
    <vehicle id="119" depart="35.70">
        <route edges="F7E7 E7E8 E8F8 F8G8 G8H8 H8I8 I8I7 I7H7"/>
    </vehicle>
    <vehicle id="120" depart="36.00">
        <route edges="D1D2 D2D3 D3D4 D4D5 D5D6 D6D7 D7C7 C7C8 C8D8 D8D7"/>
    </vehicle>
    <vehicle id="121" depart="36.30">
        <route edges="C4B4 B4B3 B3B2 B2B1 B1C1 C1D1 D1E1 E1F1 F1G1 G1G2"/>
    </vehicle>
    <vehicle id="122" depart="36.60">
        <route edges="H9I9 I9I8 I8I7 I7I6 I6I5 I5I4 I4I3 I3J3 J3J4"/>
    </vehicle>
    <vehicle id="123" depart="36.90">
        <route edges="A6B6 B6C6 C6C5 C5C4 C4C3 C3D3"/>
    </vehicle>
    <vehicle id="124" depart="37.20">
        <route edges="F6E6 E6E5 E5E4 E4E3 E3D3"/>
    </vehicle>
    <vehicle id="125" depart="37.50">
        <route edges="A9B9 B9B8 B8B7 B7B6 B6B5 B5B4 B4B3 B3B2 B2B1 B1B0 B0A0"/>
    </vehicle>
    <vehicle id="126" depart="37.80">
        <route edges="A2A1 A1B1 B1C1 C1C2 C2C3"/>
    </vehicle>
    <vehicle id="127" depart="38.10">
        <route edges="E7E8 E8F8 F8G8 G8H8 H8H7 H7H6 H6H5 H5H4 H4H3 H3H2 H2I2"/>
    </vehicle>
    <vehicle id="128" depart="38.40">
        <route edges="A7A6 A6A5 A5A4 A4A3 A3B3 B3C3"/>
    </vehicle>
    <vehicle id="129" depart="38.70">
        <route edges="J7I7 I7I6 I6I5 I5I4 I4I3 I3I2 I2I1 I1H1 H1G1"/>
    </vehicle>
    <vehicle id="130" depart="39.00">
        <route edges="E6F6 F6F5 F5F4 F4E4 E4D4 D4C4 C4B4 B4A4 A4A3 A3A2 A2B2"/>
    </vehicle>
    <vehicle id="131" depart="39.30">
        <route edges="B1A1 A1A2 A2A3 A3A4 A4B4 B4C4 C4D4 D4E4 E4F4 F4G4 G4H4 H4I4 I4J4 J4J5 J5J6 J6I6"/>
    </vehicle>
    <vehicle id="132" depart="39.60">
        <route edges="J5J4 J4J3 J3J2 J2J1 J1I1 I1H1 H1G1 G1F1"/>
    </vehicle>
    <vehicle id="133" depart="39.90">
        <route edges="B6A6 A6A5 A5A4 A4A3 A3A2 A2A1"/>
    </vehicle>
    <vehicle id="134" depart="40.20">
        <route edges="H1G1 G1G0 G0F0 F0E0 E0D0 D0D1 D1E1"/>
    </vehicle>
    <vehicle id="135" depart="40.50">
        <route edges="I3J3 J3J4 J4J5 J5J6 J6J7 J7I7 I7H7 H7G7 G7F7 F7E7"/>
    </vehicle>
    <vehicle id="136" depart="40.80">
        <route edges="I5I6 I6H6 H6G6 G6F6 F6E6 E6D6 D6D5 D5D4 D4D3 D3D2 D2D1 D1C1 C1B1 B1A1 A1A2"/>
    </vehicle>
    <vehicle id="137" depart="41.10">
        <route edges="C0B0 B0B1 B1C1 C1D1 D1E1 E1F1 F1G1 G1H1 H1I1 I1J1"/>
    </vehicle>
    <vehicle id="138" depart="41.40">
        <route edges="I4H4 H4G4 G4F4 F4F5 F5F6 F6E6 E6D6 D6C6 C6B6"/>
    </vehicle>
    <vehicle id="139" depart="41.70">
        <route edges="F8F9 F9G9 G9H9 H9H8 H8H7 H7H6 H6H5 H5H4"/>
    </vehicle>
    <vehicle id="140" depart="42.00">
        <route edges="E3E4 E4E5 E5E6 E6E7 E7E8 E8E9"/>
    </vehicle>
    <vehicle id="141" depart="42.30">
        <route edges="C5B5 B5B4 B4C4 C4C5 C5C6"/>
    </vehicle>
    <vehicle id="142" depart="42.60">
        <route edges="B5C5 C5D5 D5E5 E5F5 F5G5 G5H5 H5I5 I5I6 I6I7 I7H7"/>
    </vehicle>
    <vehicle id="143" depart="42.90">
        <route edges="G5F5 F5E5 E5D5 D5D6 D6D7 D7D8 D8D9 D9E9"/>
    </vehicle>
    <vehicle id="144" depart="43.20">
        <route edges="F3F2 F2E2 E2D2 D2D3 D3D4 D4D5 D5E5 E5E4"/>
    </vehicle>
    <vehicle id="145" depart="43.50">
        <route edges="B4B5 B5A5 A5A4 A4A3 A3A2 A2B2 B2C2"/>
    </vehicle>
    <vehicle id="146" depart="43.80">
        <route edges="I5J5 J5J4 J4I4 I4H4 H4G4 G4G5"/>
    </vehicle>
    <vehicle id="147" depart="44.10">
        <route edges="H7I7 I7I6 I6H6 H6H7 H7G7 G7G6"/>
    </vehicle>
    <vehicle id="148" depart="44.40">
        <route edges="G8G7 G7G6 G6G5 G5F5 F5E5"/>
    </vehicle>
    <vehicle id="149" depart="44.70">
        <route edges="I5J5 J5J6 J6I6 I6H6 H6G6 G6F6 F6E6 E6D6 D6C6 C6B6 B6A6 A6A7 A7B7"/>
    </vehicle>
    <vehicle id="150" depart="45.00">
        <route edges="E5D5 D5D4 D4D3 D3D2 D2E2 E2F2 F2G2 G2H2 H2H1 H1H0"/>
    </vehicle>
    <vehicle id="151" depart="45.30">
        <route edges="G9G8 G8G7 G7G6 G6G5 G5H5 H5I5"/>
    </vehicle>
    <vehicle id="152" depart="45.60">
        <route edges="J6J7 J7I7 I7I6 I6I5 I5I4 I4I3 I3I2 I2I1 I1H1"/>
    </vehicle>
    <vehicle id="153" depart="45.90">
        <route edges="G3G4 G4F4 F4F3 F3F2 F2F1 F1F0 F0E0 E0E1"/>
    </vehicle>
    <vehicle id="154" depart="46.20">
        <route edges="B6C6 C6D6 D6E6 E6F6 F6G6 G6H6 H6H5 H5H4 H4H3 H3H2 H2H1 H1H0 H0G0"/>
    </vehicle>
    <vehicle id="155" depart="46.50">
        <route edges="I6I5 I5H5 H5H6 H6H7 H7H8 H8I8"/>
    </vehicle>
    <vehicle id="156" depart="46.80">
        <route edges="E3D3 D3D2 D2D1 D1E1 E1F1 F1G1 G1G0"/>
    </vehicle>
    <vehicle id="157" depart="47.10">
        <route edges="I6J6 J6J5 J5J4 J4J3 J3I3 I3H3 H3G3 G3G2 G2H2"/>
    </vehicle>
    <vehicle id="158" depart="47.40">
        <route edges="E4E5 E5F5 F5G5 G5G4 G4G3 G3H3 H3I3 I3I4"/>
    </vehicle>
    <vehicle id="159" depart="47.70">
        <route edges="C1D1 D1D2 D2D3 D3C3 C3C4 C4D4"/>
    </vehicle>
    <vehicle id="160" depart="48.00">
        <route edges="I0I1 I1H1 H1G1 G1F1 F1E1 E1D1 D1C1 C1B1 B1B2 B2C2"/>
    </vehicle>
    <vehicle id="161" depart="48.30">
        <route edges="E6D6 D6C6 C6B6 B6A6 A6A5 A5B5"/>
    </vehicle>
    <vehicle id="162" depart="48.60">
        <route edges="E4D4 D4D3 D3D2 D2D1 D1E1 E1F1 F1G1 G1H1 H1I1"/>
    </vehicle>
    <vehicle id="163" depart="48.90">
        <route edges="C4C5 C5C6 C6C7 C7B7 B7A7 A7A8 A8B8"/>
    </vehicle>
    <vehicle id="164" depart="49.20">
        <route edges="C1B1 B1B2 B2B3 B3B4 B4C4 C4D4 D4E4 E4F4 F4G4 G4H4 H4I4 I4J4 J4J5 J5J6"/>
    </vehicle>
    <vehicle id="165" depart="49.50">
        <route edges="F1G1 G1G2 G2G3 G3G4 G4G5 G5F5 F5E5 E5D5 D5C5 C5B5 B5A5 A5A6 A6B6"/>
    </vehicle>
    <vehicle id="166" depart="49.80">
        <route edges="A8A7 A7B7 B7C7 C7C8 C8C9 C9B9"/>
    </vehicle>
    <vehicle id="167" depart="50.10">
        <route edges="C5C6 C6D6 D6E6 E6F6 F6F5 F5F4 F4E4"/>
    </vehicle>
    <vehicle id="168" depart="50.40">
        <route edges="C3B3 B3B4 B4B5 B5B6 B6B7 B7B8 B8C8 C8D8 D8E8 E8F8 F8G8 G8H8 H8I8 I8J8 J8J7"/>
    </vehicle>
    <vehicle id="169" depart="50.70">
        <route edges="J3J2 J2I2 I2I3 I3I4 I4I5 I5H5 H5H4"/>
    </vehicle>
    <vehicle id="170" depart="51.00">
        <route edges="B4C4 C4D4 D4E4 E4F4 F4G4 G4G5 G5G6 G6G7 G7G8 G8H8 H8I8 I8I7"/>
    </vehicle>
    <vehicle id="171" depart="51.30">
        <route edges="D5D6 D6D7 D7E7 E7F7 F7G7"/>
    </vehicle>
    <vehicle id="172" depart="51.60">
        <route edges="F5G5 G5H5 H5I5 I5J5 J5J6 J6I6"/>
    </vehicle>
    <vehicle id="173" depart="51.90">
        <route edges="E1E2 E2E3 E3E4 E4E5 E5E6 E6D6 D6C6 C6B6 B6A6 A6A7 A7B7"/>
    </vehicle>
    <vehicle id="174" depart="52.20">
        <route edges="G1F1 F1F2 F2F3 F3F4 F4F5 F5F6 F6F7 F7F8 F8F9 F9G9 G9H9 H9I9"/>
    </vehicle>
    <vehicle id="175" depart="52.50">
        <route edges="F7G7 G7G6 G6G5 G5F5 F5E5 E5D5 D5C5 C5B5 B5A5 A5A6"/>
    </vehicle>
    <vehicle id="176" depart="52.80">
        <route edges="F9G9 G9H9 H9I9 I9I8 I8J8 J8J9 J9I9"/>
    </vehicle>
    <vehicle id="177" depart="53.10">
        <route edges="I8J8 J8J9 J9I9 I9H9 H9G9 G9F9 F9E9 E9D9 D9C9 C9B9 B9B8 B8B7"/>
    </vehicle>
    <vehicle id="178" depart="53.40">
        <route edges="C7C8 C8D8 D8D7 D7D6 D6D5 D5D4 D4D3 D3D2 D2D1 D1D0 D0E0 E0F0 F0G0 G0H0 H0I0"/>
    </vehicle>
    <vehicle id="179" depart="53.70">
        <route edges="G3G2 G2F2 F2F3 F3F4 F4F5 F5F6 F6E6 E6D6"/>
    </vehicle>
    <vehicle id="180" depart="54.00">
        <route edges="H5H4 H4G4 G4F4 F4E4 E4D4 D4D5 D5E5"/>
    </vehicle>
    <vehicle id="181" depart="54.30">
        <route edges="C9B9 B9B8 B8B7 B7B6 B6B5 B5B4 B4C4 C4D4 D4E4 E4F4 F4G4 G4H4 H4I4 I4J4 J4J3 J3J2 J2I2"/>
    </vehicle>
    <vehicle id="182" depart="54.60">
        <route edges="F4E4 E4E5 E5F5 F5G5 G5H5 H5I5 I5I4 I4I3 I3H3"/>
    </vehicle>
    <vehicle id="183" depart="54.90">
        <route edges="I9H9 H9H8 H8H7 H7H6 H6H5 H5H4 H4H3 H3H2 H2I2 I2I1 I1I0 I0H0"/>
    </vehicle>
    <vehicle id="184" depart="55.20">
        <route edges="F5G5 G5G4 G4G3 G3H3"/>
    </vehicle>
    <vehicle id="185" depart="55.50">
        <route edges="J3I3 I3H3 H3H4 H4H5 H5H6 H6H7 H7H8 H8I8"/>
    </vehicle>
    <vehicle id="186" depart="55.80">
        <route edges="C6B6 B6B5 B5B4 B4B3 B3B2 B2C2 C2D2 D2D1 D1C1"/>
    </vehicle>
    <vehicle id="187" depart="56.10">
        <route edges="J9I9"/>
    </vehicle>
    <vehicle id="188" depart="56.40">
        <route edges="H6I6 I6I7 I7H7 H7G7 G7F7 F7E7 E7D7 D7C7 C7C8"/>
    </vehicle>
    <vehicle id="189" depart="56.70">
        <route edges="A3A2 A2B2 B2B3 B3B4 B4B5 B5B6 B6B7 B7B8 B8B9 B9C9 C9D9 D9E9 E9F9"/>
    </vehicle>
    <vehicle id="190" depart="57.00">
        <route edges="F9F8 F8F7 F7F6 F6E6 E6D6 D6C6 C6B6 B6B5"/>
    </vehicle>
    <vehicle id="191" depart="57.30">
        <route edges="D5E5 E5E4 E4E3 E3E2 E2E1 E1D1 D1C1 C1B1 B1B0"/>
    </vehicle>
    <vehicle id="192" depart="57.60">
        <route edges="D7E7 E7F7 F7G7 G7G8 G8G9 G9F9"/>
    </vehicle>
    <vehicle id="193" depart="57.90">
        <route edges="H7G7 G7F7 F7F6 F6F5 F5F4 F4F3 F3F2"/>
    </vehicle>
    <vehicle id="194" depart="58.20">
        <route edges="B5B6 B6B7 B7B8 B8C8 C8D8 D8E8 E8F8 F8G8 G8G9 G9F9"/>
    </vehicle>
    <vehicle id="195" depart="58.50">
        <route edges="A1B1 B1C1 C1D1 D1E1 E1F1 F1F2 F2F3 F3F4 F4F5 F5F6 F6F7 F7G7"/>
    </vehicle>
    <vehicle id="196" depart="58.80">
        <route edges="I5H5 H5H4 H4H3 H3H2 H2H1 H1H0 H0G0 G0F0 F0E0"/>
    </vehicle>
    <vehicle id="197" depart="59.10">
        <route edges="A5A4 A4B4 B4B5 B5B6 B6B7 B7C7 C7D7 D7E7 E7E6"/>
    </vehicle>
    <vehicle id="198" depart="59.40">
        <route edges="H7H8 H8G8 G8F8 F8E8 E8D8 D8C8 C8C7 C7C6 C6C5 C5C4 C4C3 C3C2 C2C1 C1C0 C0B0"/>
    </vehicle>
    <vehicle id="199" depart="59.70">
        <route edges="D5D6 D6D7 D7D8 D8E8 E8F8 F8F9"/>
    </vehicle>
    <vehicle id="200" depart="60.00">
        <route edges="H1H2 H2H3 H3I3 I3J3 J3J2 J2I2"/>
    </vehicle>
    <vehicle id="201" depart="60.30">
        <route edges="H8I8 I8I7 I7H7 H7G7 G7F7 F7E7 E7E8 E8F8"/>
    </vehicle>
    <vehicle id="202" depart="60.60">
        <route edges="A5A6 A6B6 B6C6 C6C5 C5C4 C4C3 C3B3"/>
    </vehicle>
    <vehicle id="203" depart="60.90">
        <route edges="A7B7 B7B6 B6B5 B5B4 B4B3 B3B2 B2C2 C2D2"/>
    </vehicle>
    <vehicle id="204" depart="61.20">
        <route edges="A5A4 A4B4 B4C4 C4D4 D4E4 E4F4 F4F5 F5F6 F6G6"/>
    </vehicle>
    <vehicle id="205" depart="61.50">
        <route edges="F6F5 F5E5 E5D5 D5D6 D6D7 D7E7"/>
    </vehicle>
    <vehicle id="206" depart="61.80">
        <route edges="D3D4 D4E4 E4F4 F4G4 G4G3 G3H3 H3I3 I3I4"/>
    </vehicle>
    <vehicle id="207" depart="62.10">
        <route edges="E1E0 E0F0 F0F1 F1F2"/>
    </vehicle>
    <vehicle id="208" depart="62.40">
        <route edges="B4C4 C4D4 D4E4 E4F4 F4G4 G4G5 G5G6 G6G7 G7H7 H7H6"/>
    </vehicle>
    <vehicle id="209" depart="62.70">
        <route edges="H6H7 H7I7 I7I6 I6I5 I5I4 I4I3 I3I2 I2I1 I1H1 H1H0"/>
    </vehicle>
    <vehicle id="210" depart="63.00">
        <route edges="B9A9 A9A8 A8A7 A7A6 A6A5 A5A4 A4A3 A3A2 A2B2 B2C2 C2D2 D2E2 E2F2 F2G2"/>
    </vehicle>
    <vehicle id="211" depart="63.30">
        <route edges="C1D1 D1D2 D2D3 D3D4 D4D5 D5D6 D6C6 C6C7 C7D7 D7D6"/>
    </vehicle>
    <vehicle id="212" depart="63.60">
        <route edges="H3G3 G3F3 F3F4 F4F5 F5E5"/>
    </vehicle>
    <vehicle id="213" depart="63.90">
        <route edges="J9I9 I9I8 I8I7 I7I6 I6I5 I5I4 I4I3 I3I2 I2I1 I1I0 I0J0"/>
    </vehicle>
    <vehicle id="214" depart="64.20">
        <route edges="I1H1 H1G1 G1F1 F1E1 E1E2 E2D2"/>
    </vehicle>
    <vehicle id="215" depart="64.50">
        <route edges="D5C5 C5C4 C4D4 D4E4 E4F4 F4G4 G4H4 H4I4 I4I3 I3I2 I2H2"/>
    </vehicle>
    <vehicle id="216" depart="64.80">
        <route edges="F0G0 G0G1 G1G2 G2G3 G3G4 G4G5 G5G6 G6G7 G7G8 G8H8 H8I8 I8J8 J8J7"/>
    </vehicle>
    <vehicle id="217" depart="65.10">
        <route edges="B5B4 B4B3 B3B2 B2C2 C2C3"/>
    </vehicle>
    <vehicle id="218" depart="65.40">
        <route edges="E2D2 D2D3 D3D4 D4D5 D5D6 D6D7 D7D8 D8D9 D9E9 E9F9 F9G9 G9H9 H9I9"/>
    </vehicle>
    <vehicle id="219" depart="65.70">
        <route edges="B4B5 B5A5"/>
    </vehicle>
    <vehicle id="220" depart="66.00">
        <route edges="I5I4 I4H4 H4H5 H5H6 H6H7 H7G7 G7F7"/>
    </vehicle>
    <vehicle id="221" depart="66.30">
        <route edges="A6B6 B6B5 B5B4 B4B3 B3B2 B2C2 C2D2 D2E2 E2F2"/>
    </vehicle>
    <vehicle id="222" depart="66.60">
        <route edges="J7J8 J8I8 I8H8 H8G8 G8F8 F8E8 E8E7 E7E6 E6E5 E5E4 E4E3 E3E2 E2E1 E1F1"/>
    </vehicle>
    <vehicle id="223" depart="66.90">
        <route edges="J4I4"/>
    </vehicle>
    <vehicle id="224" depart="67.20">
        <route edges="E4D4 D4D3 D3D2 D2D1 D1E1 E1F1 F1G1 G1H1 H1I1 I1I2"/>
    </vehicle>
    <vehicle id="225" depart="67.50">
        <route edges="E8E9 E9D9 D9C9 C9B9 B9A9 A9A8 A8A7 A7A6 A6A5 A5A4 A4A3 A3A2 A2A1 A1B1"/>
    </vehicle>
    <vehicle id="226" depart="67.80">
        <route edges="J8I8 I8H8 H8G8 G8F8 F8E8 E8E7 E7E6 E6E5 E5E4 E4E3 E3D3 D3C3"/>
    </vehicle>
    <vehicle id="227" depart="68.10">
        <route edges="A9A8 A8B8 B8C8 C8D8 D8E8 E8F8 F8G8 G8H8 H8H7 H7G7"/>
    </vehicle>
    <vehicle id="228" depart="68.40">
        <route edges="B6A6 A6A5 A5A4 A4A3 A3A2 A2B2 B2C2 C2D2 D2E2 E2E3"/>
    </vehicle>
    <vehicle id="229" depart="68.70">
        <route edges="E1D1 D1D2 D2D3 D3D4 D4D5 D5D6 D6D7 D7D8 D8E8 E8E9 E9D9"/>
    </vehicle>
    <vehicle id="230" depart="69.00">
        <route edges="G2G1 G1F1 F1F2 F2F3 F3F4 F4F5 F5F6 F6F7 F7E7 E7D7 D7D6"/>
    </vehicle>
    <vehicle id="231" depart="69.30">
        <route edges="G3F3 F3F4 F4G4 G4H4 H4I4 I4J4"/>
    </vehicle>
    <vehicle id="232" depart="69.60">
        <route edges="H2H1 H1G1 G1F1 F1E1 E1D1 D1C1 C1B1 B1B2 B2B3 B3B4 B4A4 A4A3"/>
    </vehicle>
    <vehicle id="233" depart="69.90">
        <route edges="I1H1 H1H2 H2I2 I2I1 I1I0 I0H0"/>
    </vehicle>
    <vehicle id="234" depart="70.20">
        <route edges="C3B3 B3B4 B4B5 B5B6 B6B7 B7B8 B8B9 B9C9 C9D9 D9E9 E9E8"/>
    </vehicle>
    <vehicle id="235" depart="70.50">
        <route edges="H4G4 G4F4 F4F3"/>
    </vehicle>
    <vehicle id="236" depart="70.80">
        <route edges="C6B6 B6B5 B5A5 A5A6"/>
    </vehicle>
    <vehicle id="237" depart="71.10">
        <route edges="H6H5 H5G5 G5F5 F5E5 E5D5 D5C5 C5B5 B5B6 B6B7 B7B8 B8B9 B9C9"/>
    </vehicle>
    <vehicle id="238" depart="71.40">
        <route edges="I3J3 J3J4 J4J5 J5J6 J6J7 J7I7 I7H7 H7G7 G7F7 F7E7 E7D7 D7D8 D8E8"/>
    </vehicle>
    <vehicle id="239" depart="71.70">
        <route edges="C3C2 C2D2 D2E2 E2F2 F2G2 G2H2 H2I2 I2I3 I3I4 I4I5 I5I6 I6I7"/>
    </vehicle>
    <vehicle id="240" depart="72.00">