<configuration>
    <input>
        <net-file value="../map.net.xml"/>
        <route-files value="map.rou.xml"/>
        <additional-files value="../map.add.xml"/>
    </input>
</configuration>