<?xml version="1.0" encoding="UTF-8"?>

<!-- generated on 2021-06-12 17:29:22 by Eclipse SUMO netgenerate Version 1.9.2
<configuration xmlns:xsi="http://www.w3.org/2001/XMLSchema-instance" xsi:noNamespaceSchemaLocation="http://sumo.dlr.de/xsd/netgenerateConfiguration.xsd">

    <grid_network>
        <grid value="true"/>
        <grid.x-number value="3"/>
        <grid.y-number value="6"/>
        <grid.x-length value="100"/>
        <grid.y-length value="50"/>
    </grid_network>

    <input>
        <type-files value="edge.typ.xml"/>
    </input>

    <output>
        <output-file value="grid.net.xml"/>
    </output>

    <building_defaults>
        <default.type value="two_lane"/>
        <default-junction-type value="traffic_light_unregulated"/>
    </building_defaults>

    <junctions>
        <no-turnarounds value="true"/>
    </junctions>

</configuration>
-->

<net version="1.9" junctionCornerDetail="5" limitTurnSpeed="5.50" xmlns:xsi="http://www.w3.org/2001/XMLSchema-instance" xsi:noNamespaceSchemaLocation="http://sumo.dlr.de/xsd/net_file.xsd">

    <location netOffset="0.00,0.00" convBoundary="0.00,0.00,200.00,250.00" origBoundary="0.00,0.00,200.00,250.00" projParameter="!"/>

    <type id="two_lane" numLanes="2" speed="44.00"/>

    <edge id=":A0_0" function="internal">
        <lane id=":A0_0_0" index="0" speed="8.96" length="18.06" shape="-4.80,6.40 -4.10,1.50 -2.00,-2.00 1.50,-4.10 6.40,-4.80"/>
        <lane id=":A0_0_1" index="1" speed="7.66" length="12.90" shape="-1.60,6.40 -1.10,2.90 0.40,0.40 2.90,-1.10 6.40,-1.60"/>
    </edge>
    <edge id=":A0_2" function="internal">
        <lane id=":A0_2_0" index="0" speed="3.90" length="2.58" shape="6.40,4.80 5.70,4.90 5.20,5.20 4.90,5.70 4.80,6.40"/>
        <lane id=":A0_2_1" index="1" speed="6.08" length="7.74" shape="6.40,1.60 4.30,1.90 2.80,2.80 1.90,4.30 1.60,6.40"/>
    </edge>
    <edge id=":A1_0" function="internal">
        <lane id=":A1_0_0" index="0" speed="44.00" length="20.80" shape="-4.80,60.40 -4.80,39.60"/>
        <lane id=":A1_0_1" index="1" speed="44.00" length="20.80" shape="-1.60,60.40 -1.60,39.60"/>
    </edge>
    <edge id=":A1_2" function="internal">
        <lane id=":A1_2_0" index="0" speed="9.02" length="18.33" shape="-1.60,60.40 -0.52,56.14 2.28,52.28 6.14,49.48 10.40,48.40"/>
    </edge>
    <edge id=":A1_3" function="internal">
        <lane id=":A1_3_0" index="0" speed="6.51" length="9.03" shape="10.40,54.80 7.95,55.15 6.20,56.20 5.15,57.95 4.80,60.40"/>
        <lane id=":A1_3_1" index="1" speed="8.00" length="14.19" shape="10.40,51.60 6.55,52.15 3.80,53.80 2.15,56.55 1.60,60.40"/>
    </edge>
    <edge id=":A1_5" function="internal">
        <lane id=":A1_5_0" index="0" speed="9.02" length="18.33" shape="10.40,51.60 6.14,50.52 2.28,47.72 -0.52,43.86 -1.60,39.60"/>
    </edge>
    <edge id=":A1_6" function="internal">
        <lane id=":A1_6_0" index="0" speed="6.51" length="9.03" shape="4.80,39.60 5.15,42.05 6.20,43.80 7.95,44.85 10.40,45.20"/>
    </edge>
    <edge id=":A1_7" function="internal">
        <lane id=":A1_7_0" index="0" speed="44.00" length="20.80" shape="4.80,39.60 4.80,60.40"/>
        <lane id=":A1_7_1" index="1" speed="44.00" length="20.80" shape="1.60,39.60 1.60,60.40"/>
    </edge>
    <edge id=":A2_0" function="internal">
        <lane id=":A2_0_0" index="0" speed="44.00" length="20.80" shape="-4.80,110.40 -4.80,89.60"/>
        <lane id=":A2_0_1" index="1" speed="44.00" length="20.80" shape="-1.60,110.40 -1.60,89.60"/>
    </edge>
    <edge id=":A2_2" function="internal">
        <lane id=":A2_2_0" index="0" speed="9.02" length="18.33" shape="-1.60,110.40 -0.52,106.14 2.28,102.28 6.14,99.48 10.40,98.40"/>
    </edge>
    <edge id=":A2_3" function="internal">
        <lane id=":A2_3_0" index="0" speed="6.51" length="9.03" shape="10.40,104.80 7.95,105.15 6.20,106.20 5.15,107.95 4.80,110.40"/>
        <lane id=":A2_3_1" index="1" speed="8.00" length="14.19" shape="10.40,101.60 6.55,102.15 3.80,103.80 2.15,106.55 1.60,110.40"/>
    </edge>
    <edge id=":A2_5" function="internal">
        <lane id=":A2_5_0" index="0" speed="9.02" length="18.33" shape="10.40,101.60 6.14,100.52 2.28,97.72 -0.52,93.86 -1.60,89.60"/>
    </edge>
    <edge id=":A2_6" function="internal">
        <lane id=":A2_6_0" index="0" speed="6.51" length="9.03" shape="4.80,89.60 5.15,92.05 6.20,93.80 7.95,94.85 10.40,95.20"/>
    </edge>
    <edge id=":A2_7" function="internal">
        <lane id=":A2_7_0" index="0" speed="44.00" length="20.80" shape="4.80,89.60 4.80,110.40"/>
        <lane id=":A2_7_1" index="1" speed="44.00" length="20.80" shape="1.60,89.60 1.60,110.40"/>
    </edge>
    <edge id=":A3_0" function="internal">
        <lane id=":A3_0_0" index="0" speed="44.00" length="20.80" shape="-4.80,160.40 -4.80,139.60"/>
        <lane id=":A3_0_1" index="1" speed="44.00" length="20.80" shape="-1.60,160.40 -1.60,139.60"/>
    </edge>
    <edge id=":A3_2" function="internal">
        <lane id=":A3_2_0" index="0" speed="9.02" length="18.33" shape="-1.60,160.40 -0.52,156.14 2.28,152.28 6.14,149.48 10.40,148.40"/>
    </edge>
    <edge id=":A3_3" function="internal">
        <lane id=":A3_3_0" index="0" speed="6.51" length="9.03" shape="10.40,154.80 7.95,155.15 6.20,156.20 5.15,157.95 4.80,160.40"/>
        <lane id=":A3_3_1" index="1" speed="8.00" length="14.19" shape="10.40,151.60 6.55,152.15 3.80,153.80 2.15,156.55 1.60,160.40"/>
    </edge>
    <edge id=":A3_5" function="internal">
        <lane id=":A3_5_0" index="0" speed="9.02" length="18.33" shape="10.40,151.60 6.14,150.52 2.28,147.72 -0.52,143.86 -1.60,139.60"/>
    </edge>
    <edge id=":A3_6" function="internal">
        <lane id=":A3_6_0" index="0" speed="6.51" length="9.03" shape="4.80,139.60 5.15,142.05 6.20,143.80 7.95,144.85 10.40,145.20"/>
    </edge>
    <edge id=":A3_7" function="internal">
        <lane id=":A3_7_0" index="0" speed="44.00" length="20.80" shape="4.80,139.60 4.80,160.40"/>
        <lane id=":A3_7_1" index="1" speed="44.00" length="20.80" shape="1.60,139.60 1.60,160.40"/>
    </edge>
    <edge id=":A4_0" function="internal">
        <lane id=":A4_0_0" index="0" speed="44.00" length="20.80" shape="-4.80,210.40 -4.80,189.60"/>
        <lane id=":A4_0_1" index="1" speed="44.00" length="20.80" shape="-1.60,210.40 -1.60,189.60"/>
    </edge>
    <edge id=":A4_2" function="internal">
        <lane id=":A4_2_0" index="0" speed="9.02" length="18.33" shape="-1.60,210.40 -0.52,206.14 2.28,202.28 6.14,199.48 10.40,198.40"/>
    </edge>
    <edge id=":A4_3" function="internal">
        <lane id=":A4_3_0" index="0" speed="6.51" length="9.03" shape="10.40,204.80 7.95,205.15 6.20,206.20 5.15,207.95 4.80,210.40"/>
        <lane id=":A4_3_1" index="1" speed="8.00" length="14.19" shape="10.40,201.60 6.55,202.15 3.80,203.80 2.15,206.55 1.60,210.40"/>
    </edge>
    <edge id=":A4_5" function="internal">
        <lane id=":A4_5_0" index="0" speed="9.02" length="18.33" shape="10.40,201.60 6.14,200.52 2.28,197.72 -0.52,193.86 -1.60,189.60"/>
    </edge>
    <edge id=":A4_6" function="internal">
        <lane id=":A4_6_0" index="0" speed="6.51" length="9.03" shape="4.80,189.60 5.15,192.05 6.20,193.80 7.95,194.85 10.40,195.20"/>
    </edge>
    <edge id=":A4_7" function="internal">
        <lane id=":A4_7_0" index="0" speed="44.00" length="20.80" shape="4.80,189.60 4.80,210.40"/>
        <lane id=":A4_7_1" index="1" speed="44.00" length="20.80" shape="1.60,189.60 1.60,210.40"/>
    </edge>
    <edge id=":A5_0" function="internal">
        <lane id=":A5_0_0" index="0" speed="8.96" length="18.06" shape="6.40,254.80 1.50,254.10 -2.00,252.00 -4.10,248.50 -4.80,243.60"/>
        <lane id=":A5_0_1" index="1" speed="7.66" length="12.90" shape="6.40,251.60 2.90,251.10 0.40,249.60 -1.10,247.10 -1.60,243.60"/>
    </edge>
    <edge id=":A5_2" function="internal">
        <lane id=":A5_2_0" index="0" speed="3.90" length="2.58" shape="4.80,243.60 4.90,244.30 5.20,244.80 5.70,245.10 6.40,245.20"/>
        <lane id=":A5_2_1" index="1" speed="6.08" length="7.74" shape="1.60,243.60 1.90,245.70 2.80,247.20 4.30,248.10 6.40,248.40"/>
    </edge>
    <edge id=":B0_0" function="internal">
        <lane id=":B0_0_0" index="0" speed="6.51" length="9.03" shape="95.20,10.40 94.85,7.95 93.80,6.20 92.05,5.15 89.60,4.80"/>
        <lane id=":B0_0_1" index="1" speed="8.00" length="14.19" shape="98.40,10.40 97.85,6.55 96.20,3.80 93.45,2.15 89.60,1.60"/>
    </edge>
    <edge id=":B0_2" function="internal">
        <lane id=":B0_2_0" index="0" speed="9.02" length="18.33" shape="98.40,10.40 99.48,6.14 102.28,2.28 106.14,-0.52 110.40,-1.60"/>
    </edge>
    <edge id=":B0_3" function="internal">
        <lane id=":B0_3_0" index="0" speed="6.51" length="9.03" shape="110.40,4.80 107.95,5.15 106.20,6.20 105.15,7.95 104.80,10.40"/>
    </edge>
    <edge id=":B0_4" function="internal">
        <lane id=":B0_4_0" index="0" speed="44.00" length="20.80" shape="110.40,4.80 89.60,4.80"/>
        <lane id=":B0_4_1" index="1" speed="44.00" length="20.80" shape="110.40,1.60 89.60,1.60"/>
    </edge>
    <edge id=":B0_6" function="internal">
        <lane id=":B0_6_0" index="0" speed="44.00" length="20.80" shape="89.60,-4.80 110.40,-4.80"/>
        <lane id=":B0_6_1" index="1" speed="44.00" length="20.80" shape="89.60,-1.60 110.40,-1.60"/>
    </edge>
    <edge id=":B0_8" function="internal">
        <lane id=":B0_8_0" index="0" speed="9.02" length="18.33" shape="89.60,-1.60 93.86,-0.52 97.72,2.28 100.52,6.14 101.60,10.40"/>
    </edge>
    <edge id=":B1_0" function="internal">
        <lane id=":B1_0_0" index="0" speed="6.51" length="9.03" shape="95.20,60.40 94.85,57.95 93.80,56.20 92.05,55.15 89.60,54.80"/>
    </edge>
    <edge id=":B1_1" function="internal">
        <lane id=":B1_1_0" index="0" speed="44.00" length="20.80" shape="95.20,60.40 95.20,39.60"/>
        <lane id=":B1_1_1" index="1" speed="44.00" length="20.80" shape="98.40,60.40 98.40,39.60"/>
    </edge>
    <edge id=":B1_3" function="internal">
        <lane id=":B1_3_0" index="0" speed="9.02" length="18.33" shape="98.40,60.40 99.48,56.14 102.28,52.28 106.14,49.48 110.40,48.40"/>
    </edge>
    <edge id=":B1_4" function="internal">
        <lane id=":B1_4_0" index="0" speed="6.51" length="9.03" shape="110.40,54.80 107.95,55.15 106.20,56.20 105.15,57.95 104.80,60.40"/>
    </edge>
    <edge id=":B1_5" function="internal">
        <lane id=":B1_5_0" index="0" speed="44.00" length="20.80" shape="110.40,54.80 89.60,54.80"/>
        <lane id=":B1_5_1" index="1" speed="44.00" length="20.80" shape="110.40,51.60 89.60,51.60"/>
    </edge>
    <edge id=":B1_7" function="internal">
        <lane id=":B1_7_0" index="0" speed="9.02" length="18.33" shape="110.40,51.60 106.14,50.52 102.28,47.72 99.48,43.86 98.40,39.60"/>
    </edge>
    <edge id=":B1_8" function="internal">
        <lane id=":B1_8_0" index="0" speed="6.51" length="9.03" shape="104.80,39.60 105.15,42.05 106.20,43.80 107.95,44.85 110.40,45.20"/>
    </edge>
    <edge id=":B1_9" function="internal">
        <lane id=":B1_9_0" index="0" speed="44.00" length="20.80" shape="104.80,39.60 104.80,60.40"/>
        <lane id=":B1_9_1" index="1" speed="44.00" length="20.80" shape="101.60,39.60 101.60,60.40"/>
    </edge>
    <edge id=":B1_11" function="internal">
        <lane id=":B1_11_0" index="0" speed="9.02" length="18.33" shape="101.60,39.60 100.52,43.86 97.72,47.72 93.86,50.52 89.60,51.60"/>
    </edge>
    <edge id=":B1_12" function="internal">
        <lane id=":B1_12_0" index="0" speed="6.51" length="9.03" shape="89.60,45.20 92.05,44.85 93.80,43.80 94.85,42.05 95.20,39.60"/>
    </edge>
    <edge id=":B1_13" function="internal">
        <lane id=":B1_13_0" index="0" speed="44.00" length="20.80" shape="89.60,45.20 110.40,45.20"/>
        <lane id=":B1_13_1" index="1" speed="44.00" length="20.80" shape="89.60,48.40 110.40,48.40"/>
    </edge>
    <edge id=":B1_15" function="internal">
        <lane id=":B1_15_0" index="0" speed="9.02" length="18.33" shape="89.60,48.40 93.86,49.48 97.72,52.28 100.52,56.14 101.60,60.40"/>
    </edge>
    <edge id=":B2_0" function="internal">
        <lane id=":B2_0_0" index="0" speed="6.51" length="9.03" shape="95.20,110.40 94.85,107.95 93.80,106.20 92.05,105.15 89.60,104.80"/>
    </edge>
    <edge id=":B2_1" function="internal">
        <lane id=":B2_1_0" index="0" speed="44.00" length="20.80" shape="95.20,110.40 95.20,89.60"/>
        <lane id=":B2_1_1" index="1" speed="44.00" length="20.80" shape="98.40,110.40 98.40,89.60"/>
    </edge>
    <edge id=":B2_3" function="internal">
        <lane id=":B2_3_0" index="0" speed="9.02" length="18.33" shape="98.40,110.40 99.48,106.14 102.28,102.28 106.14,99.48 110.40,98.40"/>
    </edge>
    <edge id=":B2_4" function="internal">
        <lane id=":B2_4_0" index="0" speed="6.51" length="9.03" shape="110.40,104.80 107.95,105.15 106.20,106.20 105.15,107.95 104.80,110.40"/>
    </edge>
    <edge id=":B2_5" function="internal">
        <lane id=":B2_5_0" index="0" speed="44.00" length="20.80" shape="110.40,104.80 89.60,104.80"/>
        <lane id=":B2_5_1" index="1" speed="44.00" length="20.80" shape="110.40,101.60 89.60,101.60"/>
    </edge>
    <edge id=":B2_7" function="internal">
        <lane id=":B2_7_0" index="0" speed="9.02" length="18.33" shape="110.40,101.60 106.14,100.52 102.28,97.72 99.48,93.86 98.40,89.60"/>
    </edge>
    <edge id=":B2_8" function="internal">
        <lane id=":B2_8_0" index="0" speed="6.51" length="9.03" shape="104.80,89.60 105.15,92.05 106.20,93.80 107.95,94.85 110.40,95.20"/>
    </edge>
    <edge id=":B2_9" function="internal">
        <lane id=":B2_9_0" index="0" speed="44.00" length="20.80" shape="104.80,89.60 104.80,110.40"/>
        <lane id=":B2_9_1" index="1" speed="44.00" length="20.80" shape="101.60,89.60 101.60,110.40"/>
    </edge>
    <edge id=":B2_11" function="internal">
        <lane id=":B2_11_0" index="0" speed="9.02" length="18.33" shape="101.60,89.60 100.52,93.86 97.72,97.72 93.86,100.52 89.60,101.60"/>
    </edge>
    <edge id=":B2_12" function="internal">
        <lane id=":B2_12_0" index="0" speed="6.51" length="9.03" shape="89.60,95.20 92.05,94.85 93.80,93.80 94.85,92.05 95.20,89.60"/>
    </edge>
    <edge id=":B2_13" function="internal">
        <lane id=":B2_13_0" index="0" speed="44.00" length="20.80" shape="89.60,95.20 110.40,95.20"/>
        <lane id=":B2_13_1" index="1" speed="44.00" length="20.80" shape="89.60,98.40 110.40,98.40"/>
    </edge>
    <edge id=":B2_15" function="internal">
        <lane id=":B2_15_0" index="0" speed="9.02" length="18.33" shape="89.60,98.40 93.86,99.48 97.72,102.28 100.52,106.14 101.60,110.40"/>
    </edge>
    <edge id=":B3_0" function="internal">
        <lane id=":B3_0_0" index="0" speed="6.51" length="9.03" shape="95.20,160.40 94.85,157.95 93.80,156.20 92.05,155.15 89.60,154.80"/>
    </edge>
    <edge id=":B3_1" function="internal">
        <lane id=":B3_1_0" index="0" speed="44.00" length="20.80" shape="95.20,160.40 95.20,139.60"/>
        <lane id=":B3_1_1" index="1" speed="44.00" length="20.80" shape="98.40,160.40 98.40,139.60"/>
    </edge>
    <edge id=":B3_3" function="internal">
        <lane id=":B3_3_0" index="0" speed="9.02" length="18.33" shape="98.40,160.40 99.48,156.14 102.28,152.28 106.14,149.48 110.40,148.40"/>
    </edge>
    <edge id=":B3_4" function="internal">
        <lane id=":B3_4_0" index="0" speed="6.51" length="9.03" shape="110.40,154.80 107.95,155.15 106.20,156.20 105.15,157.95 104.80,160.40"/>
    </edge>
    <edge id=":B3_5" function="internal">
        <lane id=":B3_5_0" index="0" speed="44.00" length="20.80" shape="110.40,154.80 89.60,154.80"/>
        <lane id=":B3_5_1" index="1" speed="44.00" length="20.80" shape="110.40,151.60 89.60,151.60"/>
    </edge>
    <edge id=":B3_7" function="internal">
        <lane id=":B3_7_0" index="0" speed="9.02" length="18.33" shape="110.40,151.60 106.14,150.52 102.28,147.72 99.48,143.86 98.40,139.60"/>
    </edge>
    <edge id=":B3_8" function="internal">
        <lane id=":B3_8_0" index="0" speed="6.51" length="9.03" shape="104.80,139.60 105.15,142.05 106.20,143.80 107.95,144.85 110.40,145.20"/>
    </edge>
    <edge id=":B3_9" function="internal">
        <lane id=":B3_9_0" index="0" speed="44.00" length="20.80" shape="104.80,139.60 104.80,160.40"/>
        <lane id=":B3_9_1" index="1" speed="44.00" length="20.80" shape="101.60,139.60 101.60,160.40"/>
    </edge>
    <edge id=":B3_11" function="internal">
        <lane id=":B3_11_0" index="0" speed="9.02" length="18.33" shape="101.60,139.60 100.52,143.86 97.72,147.72 93.86,150.52 89.60,151.60"/>
    </edge>
    <edge id=":B3_12" function="internal">
        <lane id=":B3_12_0" index="0" speed="6.51" length="9.03" shape="89.60,145.20 92.05,144.85 93.80,143.80 94.85,142.05 95.20,139.60"/>
    </edge>
    <edge id=":B3_13" function="internal">
        <lane id=":B3_13_0" index="0" speed="44.00" length="20.80" shape="89.60,145.20 110.40,145.20"/>
        <lane id=":B3_13_1" index="1" speed="44.00" length="20.80" shape="89.60,148.40 110.40,148.40"/>
    </edge>
    <edge id=":B3_15" function="internal">
        <lane id=":B3_15_0" index="0" speed="9.02" length="18.33" shape="89.60,148.40 93.86,149.48 97.72,152.28 100.52,156.14 101.60,160.40"/>
    </edge>
    <edge id=":B4_0" function="internal">
        <lane id=":B4_0_0" index="0" speed="6.51" length="9.03" shape="95.20,210.40 94.85,207.95 93.80,206.20 92.05,205.15 89.60,204.80"/>
    </edge>
    <edge id=":B4_1" function="internal">
        <lane id=":B4_1_0" index="0" speed="44.00" length="20.80" shape="95.20,210.40 95.20,189.60"/>
        <lane id=":B4_1_1" index="1" speed="44.00" length="20.80" shape="98.40,210.40 98.40,189.60"/>
    </edge>
    <edge id=":B4_3" function="internal">
        <lane id=":B4_3_0" index="0" speed="9.02" length="18.33" shape="98.40,210.40 99.48,206.14 102.28,202.28 106.14,199.48 110.40,198.40"/>
    </edge>
    <edge id=":B4_4" function="internal">
        <lane id=":B4_4_0" index="0" speed="6.51" length="9.03" shape="110.40,204.80 107.95,205.15 106.20,206.20 105.15,207.95 104.80,210.40"/>
    </edge>
    <edge id=":B4_5" function="internal">
        <lane id=":B4_5_0" index="0" speed="44.00" length="20.80" shape="110.40,204.80 89.60,204.80"/>
        <lane id=":B4_5_1" index="1" speed="44.00" length="20.80" shape="110.40,201.60 89.60,201.60"/>
    </edge>
    <edge id=":B4_7" function="internal">
        <lane id=":B4_7_0" index="0" speed="9.02" length="18.33" shape="110.40,201.60 106.14,200.52 102.28,197.72 99.48,193.86 98.40,189.60"/>
    </edge>
    <edge id=":B4_8" function="internal">
        <lane id=":B4_8_0" index="0" speed="6.51" length="9.03" shape="104.80,189.60 105.15,192.05 106.20,193.80 107.95,194.85 110.40,195.20"/>
    </edge>
    <edge id=":B4_9" function="internal">
        <lane id=":B4_9_0" index="0" speed="44.00" length="20.80" shape="104.80,189.60 104.80,210.40"/>
        <lane id=":B4_9_1" index="1" speed="44.00" length="20.80" shape="101.60,189.60 101.60,210.40"/>
    </edge>
    <edge id=":B4_11" function="internal">
        <lane id=":B4_11_0" index="0" speed="9.02" length="18.33" shape="101.60,189.60 100.52,193.86 97.72,197.72 93.86,200.52 89.60,201.60"/>
    </edge>
    <edge id=":B4_12" function="internal">
        <lane id=":B4_12_0" index="0" speed="6.51" length="9.03" shape="89.60,195.20 92.05,194.85 93.80,193.80 94.85,192.05 95.20,189.60"/>
    </edge>
    <edge id=":B4_13" function="internal">
        <lane id=":B4_13_0" index="0" speed="44.00" length="20.80" shape="89.60,195.20 110.40,195.20"/>
        <lane id=":B4_13_1" index="1" speed="44.00" length="20.80" shape="89.60,198.40 110.40,198.40"/>
    </edge>
    <edge id=":B4_15" function="internal">
        <lane id=":B4_15_0" index="0" speed="9.02" length="18.33" shape="89.60,198.40 93.86,199.48 97.72,202.28 100.52,206.14 101.60,210.40"/>
    </edge>
    <edge id=":B5_0" function="internal">
        <lane id=":B5_0_0" index="0" speed="44.00" length="20.80" shape="110.40,254.80 89.60,254.80"/>
        <lane id=":B5_0_1" index="1" speed="44.00" length="20.80" shape="110.40,251.60 89.60,251.60"/>
    </edge>
    <edge id=":B5_2" function="internal">
        <lane id=":B5_2_0" index="0" speed="9.02" length="18.33" shape="110.40,251.60 106.14,250.52 102.28,247.72 99.48,243.86 98.40,239.60"/>
    </edge>
    <edge id=":B5_3" function="internal">
        <lane id=":B5_3_0" index="0" speed="6.51" length="9.03" shape="104.80,239.60 105.15,242.05 106.20,243.80 107.95,244.85 110.40,245.20"/>
        <lane id=":B5_3_1" index="1" speed="8.00" length="14.19" shape="101.60,239.60 102.15,243.45 103.80,246.20 106.55,247.85 110.40,248.40"/>
    </edge>
    <edge id=":B5_5" function="internal">
        <lane id=":B5_5_0" index="0" speed="9.02" length="18.33" shape="101.60,239.60 100.52,243.86 97.72,247.72 93.86,250.52 89.60,251.60"/>
    </edge>
    <edge id=":B5_6" function="internal">
        <lane id=":B5_6_0" index="0" speed="6.51" length="9.03" shape="89.60,245.20 92.05,244.85 93.80,243.80 94.85,242.05 95.20,239.60"/>
    </edge>
    <edge id=":B5_7" function="internal">
        <lane id=":B5_7_0" index="0" speed="44.00" length="20.80" shape="89.60,245.20 110.40,245.20"/>
        <lane id=":B5_7_1" index="1" speed="44.00" length="20.80" shape="89.60,248.40 110.40,248.40"/>
    </edge>
    <edge id=":C0_0" function="internal">
        <lane id=":C0_0_0" index="0" speed="3.90" length="2.58" shape="195.20,6.40 195.10,5.70 194.80,5.20 194.30,4.90 193.60,4.80"/>
        <lane id=":C0_0_1" index="1" speed="6.08" length="7.74" shape="198.40,6.40 198.10,4.30 197.20,2.80 195.70,1.90 193.60,1.60"/>
    </edge>
    <edge id=":C0_2" function="internal">
        <lane id=":C0_2_0" index="0" speed="8.96" length="18.06" shape="193.60,-4.80 198.50,-4.10 202.00,-2.00 204.10,1.50 204.80,6.40"/>
        <lane id=":C0_2_1" index="1" speed="7.66" length="12.90" shape="193.60,-1.60 197.10,-1.10 199.60,0.40 201.10,2.90 201.60,6.40"/>
    </edge>
    <edge id=":C1_0" function="internal">
        <lane id=":C1_0_0" index="0" speed="6.51" length="9.03" shape="195.20,60.40 194.85,57.95 193.80,56.20 192.05,55.15 189.60,54.80"/>
    </edge>
    <edge id=":C1_1" function="internal">
        <lane id=":C1_1_0" index="0" speed="44.00" length="20.80" shape="195.20,60.40 195.20,39.60"/>
        <lane id=":C1_1_1" index="1" speed="44.00" length="20.80" shape="198.40,60.40 198.40,39.60"/>
    </edge>
    <edge id=":C1_3" function="internal">
        <lane id=":C1_3_0" index="0" speed="44.00" length="20.80" shape="204.80,39.60 204.80,60.40"/>
        <lane id=":C1_3_1" index="1" speed="44.00" length="20.80" shape="201.60,39.60 201.60,60.40"/>
    </edge>
    <edge id=":C1_5" function="internal">
        <lane id=":C1_5_0" index="0" speed="9.02" length="18.33" shape="201.60,39.60 200.52,43.86 197.72,47.72 193.86,50.52 189.60,51.60"/>
    </edge>
    <edge id=":C1_6" function="internal">
        <lane id=":C1_6_0" index="0" speed="6.51" length="9.03" shape="189.60,45.20 192.05,44.85 193.80,43.80 194.85,42.05 195.20,39.60"/>
        <lane id=":C1_6_1" index="1" speed="8.00" length="14.19" shape="189.60,48.40 193.45,47.85 196.20,46.20 197.85,43.45 198.40,39.60"/>
    </edge>
    <edge id=":C1_8" function="internal">
        <lane id=":C1_8_0" index="0" speed="9.02" length="18.33" shape="189.60,48.40 193.86,49.48 197.72,52.28 200.52,56.14 201.60,60.40"/>
    </edge>
    <edge id=":C2_0" function="internal">
        <lane id=":C2_0_0" index="0" speed="6.51" length="9.03" shape="195.20,110.40 194.85,107.95 193.80,106.20 192.05,105.15 189.60,104.80"/>
    </edge>
    <edge id=":C2_1" function="internal">
        <lane id=":C2_1_0" index="0" speed="44.00" length="20.80" shape="195.20,110.40 195.20,89.60"/>
        <lane id=":C2_1_1" index="1" speed="44.00" length="20.80" shape="198.40,110.40 198.40,89.60"/>
    </edge>
    <edge id=":C2_3" function="internal">
        <lane id=":C2_3_0" index="0" speed="44.00" length="20.80" shape="204.80,89.60 204.80,110.40"/>
        <lane id=":C2_3_1" index="1" speed="44.00" length="20.80" shape="201.60,89.60 201.60,110.40"/>
    </edge>
    <edge id=":C2_5" function="internal">
        <lane id=":C2_5_0" index="0" speed="9.02" length="18.33" shape="201.60,89.60 200.52,93.86 197.72,97.72 193.86,100.52 189.60,101.60"/>
    </edge>
    <edge id=":C2_6" function="internal">
        <lane id=":C2_6_0" index="0" speed="6.51" length="9.03" shape="189.60,95.20 192.05,94.85 193.80,93.80 194.85,92.05 195.20,89.60"/>
        <lane id=":C2_6_1" index="1" speed="8.00" length="14.19" shape="189.60,98.40 193.45,97.85 196.20,96.20 197.85,93.45 198.40,89.60"/>
    </edge>
    <edge id=":C2_8" function="internal">
        <lane id=":C2_8_0" index="0" speed="9.02" length="18.33" shape="189.60,98.40 193.86,99.48 197.72,102.28 200.52,106.14 201.60,110.40"/>
    </edge>
    <edge id=":C3_0" function="internal">
        <lane id=":C3_0_0" index="0" speed="6.51" length="9.03" shape="195.20,160.40 194.85,157.95 193.80,156.20 192.05,155.15 189.60,154.80"/>
    </edge>
    <edge id=":C3_1" function="internal">
        <lane id=":C3_1_0" index="0" speed="44.00" length="20.80" shape="195.20,160.40 195.20,139.60"/>
        <lane id=":C3_1_1" index="1" speed="44.00" length="20.80" shape="198.40,160.40 198.40,139.60"/>
    </edge>
    <edge id=":C3_3" function="internal">
        <lane id=":C3_3_0" index="0" speed="44.00" length="20.80" shape="204.80,139.60 204.80,160.40"/>
        <lane id=":C3_3_1" index="1" speed="44.00" length="20.80" shape="201.60,139.60 201.60,160.40"/>
    </edge>
    <edge id=":C3_5" function="internal">
        <lane id=":C3_5_0" index="0" speed="9.02" length="18.33" shape="201.60,139.60 200.52,143.86 197.72,147.72 193.86,150.52 189.60,151.60"/>
    </edge>
    <edge id=":C3_6" function="internal">
        <lane id=":C3_6_0" index="0" speed="6.51" length="9.03" shape="189.60,145.20 192.05,144.85 193.80,143.80 194.85,142.05 195.20,139.60"/>
        <lane id=":C3_6_1" index="1" speed="8.00" length="14.19" shape="189.60,148.40 193.45,147.85 196.20,146.20 197.85,143.45 198.40,139.60"/>
    </edge>
    <edge id=":C3_8" function="internal">
        <lane id=":C3_8_0" index="0" speed="9.02" length="18.33" shape="189.60,148.40 193.86,149.48 197.72,152.28 200.52,156.14 201.60,160.40"/>
    </edge>
    <edge id=":C4_0" function="internal">
        <lane id=":C4_0_0" index="0" speed="6.51" length="9.03" shape="195.20,210.40 194.85,207.95 193.80,206.20 192.05,205.15 189.60,204.80"/>
    </edge>
    <edge id=":C4_1" function="internal">
        <lane id=":C4_1_0" index="0" speed="44.00" length="20.80" shape="195.20,210.40 195.20,189.60"/>
        <lane id=":C4_1_1" index="1" speed="44.00" length="20.80" shape="198.40,210.40 198.40,189.60"/>
    </edge>
    <edge id=":C4_3" function="internal">
        <lane id=":C4_3_0" index="0" speed="44.00" length="20.80" shape="204.80,189.60 204.80,210.40"/>
        <lane id=":C4_3_1" index="1" speed="44.00" length="20.80" shape="201.60,189.60 201.60,210.40"/>
    </edge>
    <edge id=":C4_5" function="internal">
        <lane id=":C4_5_0" index="0" speed="9.02" length="18.33" shape="201.60,189.60 200.52,193.86 197.72,197.72 193.86,200.52 189.60,201.60"/>
    </edge>
    <edge id=":C4_6" function="internal">
        <lane id=":C4_6_0" index="0" speed="6.51" length="9.03" shape="189.60,195.20 192.05,194.85 193.80,193.80 194.85,192.05 195.20,189.60"/>
        <lane id=":C4_6_1" index="1" speed="8.00" length="14.19" shape="189.60,198.40 193.45,197.85 196.20,196.20 197.85,193.45 198.40,189.60"/>
    </edge>
    <edge id=":C4_8" function="internal">
        <lane id=":C4_8_0" index="0" speed="9.02" length="18.33" shape="189.60,198.40 193.86,199.48 197.72,202.28 200.52,206.14 201.60,210.40"/>
    </edge>
    <edge id=":C5_0" function="internal">
        <lane id=":C5_0_0" index="0" speed="8.96" length="18.06" shape="204.80,243.60 204.10,248.50 202.00,252.00 198.50,254.10 193.60,254.80"/>
        <lane id=":C5_0_1" index="1" speed="7.66" length="12.90" shape="201.60,243.60 201.10,247.10 199.60,249.60 197.10,251.10 193.60,251.60"/>
    </edge>
    <edge id=":C5_2" function="internal">
        <lane id=":C5_2_0" index="0" speed="3.90" length="2.58" shape="193.60,245.20 194.30,245.10 194.80,244.80 195.10,244.30 195.20,243.60"/>
        <lane id=":C5_2_1" index="1" speed="6.08" length="7.74" shape="193.60,248.40 195.70,248.10 197.20,247.20 198.10,245.70 198.40,243.60"/>
    </edge>

    <edge id="A0A1" from="A0" to="A1" priority="-1" type="two_lane">
        <lane id="A0A1_0" index="0" speed="44.00" length="33.20" shape="4.80,6.40 4.80,39.60"/>
        <lane id="A0A1_1" index="1" speed="44.00" length="33.20" shape="1.60,6.40 1.60,39.60"/>
    </edge>
    <edge id="A0B0" from="A0" to="B0" priority="-1" type="two_lane">
        <lane id="A0B0_0" index="0" speed="44.00" length="83.20" shape="6.40,-4.80 89.60,-4.80"/>
        <lane id="A0B0_1" index="1" speed="44.00" length="83.20" shape="6.40,-1.60 89.60,-1.60"/>
    </edge>
    <edge id="A1A0" from="A1" to="A0" priority="-1" type="two_lane">
        <lane id="A1A0_0" index="0" speed="44.00" length="33.20" shape="-4.80,39.60 -4.80,6.40"/>
        <lane id="A1A0_1" index="1" speed="44.00" length="33.20" shape="-1.60,39.60 -1.60,6.40"/>
    </edge>
    <edge id="A1A2" from="A1" to="A2" priority="-1" type="two_lane">
        <lane id="A1A2_0" index="0" speed="44.00" length="29.20" shape="4.80,60.40 4.80,89.60"/>
        <lane id="A1A2_1" index="1" speed="44.00" length="29.20" shape="1.60,60.40 1.60,89.60"/>
    </edge>
    <edge id="A1B1" from="A1" to="B1" priority="-1" type="two_lane">
        <lane id="A1B1_0" index="0" speed="44.00" length="79.20" shape="10.40,45.20 89.60,45.20"/>
        <lane id="A1B1_1" index="1" speed="44.00" length="79.20" shape="10.40,48.40 89.60,48.40"/>
    </edge>
    <edge id="A2A1" from="A2" to="A1" priority="-1" type="two_lane">