<additional xmlns:xsi="http://www.w3.org/2001/XMLSchema-instance" xsi:noNamespaceSchemaLocation="http://sumo.dlr.de/xsd/additional_file.xsd">
    <laneAreaDetector file="e2output.xml" freq="60" speedThreshold="100" friendlyPos="x" id="e2det_-1088_0" lane="-1088_0" length="250" pos="559.92"/>
    <laneAreaDetector file="e2output.xml" freq="60" speedThreshold="100" friendlyPos="x" id="e2det_-2752_0" lane="-2752_0" length="250" pos="330.97"/>
    <laneAreaDetector file="e2output.xml" freq="60" speedThreshold="100" friendlyPos="x" id="e2det_919_0" lane="919_0" length="185.5" pos="0"/>
    <laneAreaDetector file="e2output.xml" freq="60" speedThreshold="100" friendlyPos="x" id="e2det_-1093_0" lane="-1093_0" length="250" pos="558.3199999999999"/>
    <laneAreaDetector file="e2output.xml" freq="60" speedThreshold="100" friendlyPos="x" id="e2det_-1094_0" lane="-1094_0" length="250" pos="365.48"/>
    <laneAreaDetector file="e2output.xml" freq="60" speedThreshold="100" friendlyPos="x" id="e2det_924_0" lane="924_0" length="250" pos="534.26"/>
    <laneAreaDetector file="e2output.xml" freq="60" speedThreshold="100" friendlyPos="x" id="e2det_-1097_0" lane="-1097_0" length="180.97" pos="0"/>
    <laneAreaDetector file="e2output.xml" freq="60" speedThreshold="100" friendlyPos="x" id="e2det_-1348_0" lane="-1348_0" length="250" pos="135.50000000000003"/>
    <laneAreaDetector file="e2output.xml" freq="60" speedThreshold="100" friendlyPos="x" id="e2det_-2003_0" lane="-2003_0" length="180.97" pos="0"/>
    <laneAreaDetector file="e2output.xml" freq="60" speedThreshold="100" friendlyPos="x" id="e2det_402_0" lane="402_0" length="250" pos="132.29999999999998"/>
    <laneAreaDetector file="e2output.xml" freq="60" speedThreshold="100" friendlyPos="x" id="e2det_-11_0" lane="-11_0" length="185.5" pos="0"/>
    <laneAreaDetector file="e2output.xml" freq="60" speedThreshold="100" friendlyPos="x" id="e2det_-15_0" lane="-15_0" length="250" pos="535.5"/>
    <laneAreaDetector file="e2output.xml" freq="60" speedThreshold="100" friendlyPos="x" id="e2det_-3_0" lane="-3_0" length="250" pos="537.37"/>
    <laneAreaDetector file="e2output.xml" freq="60" speedThreshold="100" friendlyPos="x" id="e2det_-5_0" lane="-5_0" length="250" pos="335.5"/>
    <laneAreaDetector file="e2output.xml" freq="60" speedThreshold="100" friendlyPos="x" id="e2det_-1144_0" lane="-1144_0" length="192.70000000000002" pos="0"/>
    <laneAreaDetector file="e2output.xml" freq="60" speedThreshold="100" friendlyPos="x" id="e2det_962_0" lane="962_0" length="250" pos="342.69999999999993"/>
    <laneAreaDetector file="e2output.xml" freq="60" speedThreshold="100" friendlyPos="x" id="e2det_-1171_0" lane="-1171_0" length="250" pos="334.26"/>
    <laneAreaDetector file="e2output.xml" freq="60" speedThreshold="100" friendlyPos="x" id="e2det_-270_0" lane="-270_0" length="250" pos="335.5"/>
    <laneAreaDetector file="e2output.xml" freq="60" speedThreshold="100" friendlyPos="x" id="e2det_-339_0" lane="-339_0" length="250" pos="135.50000000000003"/>
    <laneAreaDetector file="e2output.xml" freq="60" speedThreshold="100" friendlyPos="x" id="e2det_34_0" lane="34_0" length="250" pos="335.5"/>
    <laneAreaDetector file="e2output.xml" freq="60" speedThreshold="100" friendlyPos="x" id="e2det_-1187_0" lane="-1187_0" length="250" pos="330.97"/>
    <laneAreaDetector file="e2output.xml" freq="60" speedThreshold="100" friendlyPos="x" id="e2det_1610_0" lane="1610_0" length="250" pos="330.97"/>
    <laneAreaDetector file="e2output.xml" freq="60" speedThreshold="100" friendlyPos="x" id="e2det_818_0" lane="818_0" length="185.5" pos="0"/>
    <laneAreaDetector file="e2output.xml" freq="60" speedThreshold="100" friendlyPos="x" id="e2det_-1194_0" lane="-1194_0" length="250" pos="532.72"/>
    <laneAreaDetector file="e2output.xml" freq="60" speedThreshold="100" friendlyPos="x" id="e2det_-1202_0" lane="-1202_0" length="250" pos="135.50000000000003"/>
    <laneAreaDetector file="e2output.xml" freq="60" speedThreshold="100" friendlyPos="x" id="e2det_1144_0" lane="1144_0" length="192.70000000000002" pos="0"/>
    <laneAreaDetector file="e2output.xml" freq="60" speedThreshold="100" friendlyPos="x" id="e2det_-1217_0" lane="-1217_0" length="196.70000000000002" pos="0"/>
    <laneAreaDetector file="e2output.xml" freq="60" speedThreshold="100" friendlyPos="x" id="e2det_896_0" lane="896_0" length="250" pos="139.50000000000003"/>
    <laneAreaDetector file="e2output.xml" freq="60" speedThreshold="100" friendlyPos="x" id="e2det_-1326_0" lane="-1326_0" length="250" pos="367.61"/>
    <laneAreaDetector file="e2output.xml" freq="60" speedThreshold="100" friendlyPos="x" id="e2det_-1328_0" lane="-1328_0" length="185.5" pos="0"/>
    <laneAreaDetector file="e2output.xml" freq="60" speedThreshold="100" friendlyPos="x" id="e2det_373_0" lane="373_0" length="250" pos="135.50000000000003"/>
    <laneAreaDetector file="e2output.xml" freq="60" speedThreshold="100" friendlyPos="x" id="e2det_-1330_0" lane="-1330_0" length="250" pos="135.50000000000003"/>
    <laneAreaDetector file="e2output.xml" freq="60" speedThreshold="100" friendlyPos="x" id="e2det_-3503_0" lane="-3503_0" length="250" pos="532.72"/>
    <laneAreaDetector file="e2output.xml" freq="60" speedThreshold="100" friendlyPos="x" id="e2det_386_0" lane="386_0" length="250" pos="335.5"/>
    <laneAreaDetector file="e2output.xml" freq="60" speedThreshold="100" friendlyPos="x" id="e2det_-1357_0" lane="-1357_0" length="250" pos="629.17"/>
    <laneAreaDetector file="e2output.xml" freq="60" speedThreshold="100" friendlyPos="x" id="e2det_-1369_0" lane="-1369_0" length="250" pos="542.6999999999999"/>
    <laneAreaDetector file="e2output.xml" freq="60" speedThreshold="100" friendlyPos="x" id="e2det_1202_0" lane="1202_0" length="250" pos="135.50000000000003"/>
    <laneAreaDetector file="e2output.xml" freq="60" speedThreshold="100" friendlyPos="x" id="e2det_-1592_0" lane="-1592_0" length="250" pos="335.5"/>
    <laneAreaDetector file="e2output.xml" freq="60" speedThreshold="100" friendlyPos="x" id="e2det_-1954_0" lane="-1954_0" length="189.5" pos="0"/>
    <laneAreaDetector file="e2output.xml" freq="60" speedThreshold="100" friendlyPos="x" id="e2det_-2133_0" lane="-2133_0" length="250" pos="530.97"/>
    <laneAreaDetector file="e2output.xml" freq="60" speedThreshold="100" friendlyPos="x" id="e2det_623_0" lane="623_0" length="185.5" pos="0"/>
    <laneAreaDetector file="e2output.xml" freq="60" speedThreshold="100" friendlyPos="x" id="e2det_-1599_0" lane="-1599_0" length="250" pos="337.0799999999999"/>
    <laneAreaDetector file="e2output.xml" freq="60" speedThreshold="100" friendlyPos="x" id="e2det_-592_0" lane="-592_0" length="250" pos="135.50000000000003"/>
    <laneAreaDetector file="e2output.xml" freq="60" speedThreshold="100" friendlyPos="x" id="e2det_284_0" lane="284_0" length="185.5" pos="0"/>
    <laneAreaDetector file="e2output.xml" freq="60" speedThreshold="100" friendlyPos="x" id="e2det_-1609_0" lane="-1609_0" length="250" pos="574.98"/>
    <laneAreaDetector file="e2output.xml" freq="60" speedThreshold="100" friendlyPos="x" id="e2det_-1610_0" lane="-1610_0" length="250" pos="330.97"/>
    <laneAreaDetector file="e2output.xml" freq="60" speedThreshold="100" friendlyPos="x" id="e2det_-2356_0" lane="-2356_0" length="189.5" pos="0"/>
    <laneAreaDetector file="e2output.xml" freq="60" speedThreshold="100" friendlyPos="x" id="e2det_1348_0" lane="1348_0" length="250" pos="135.50000000000003"/>
    <laneAreaDetector file="e2output.xml" freq="60" speedThreshold="100" friendlyPos="x" id="e2det_-1619_0" lane="-1619_0" length="180.97" pos="0"/>
    <laneAreaDetector file="e2output.xml" freq="60" speedThreshold="100" friendlyPos="x" id="e2det_-2701_0" lane="-2701_0" length="250" pos="535.5"/>
    <laneAreaDetector file="e2output.xml" freq="60" speedThreshold="100" friendlyPos="x" id="e2det_1925_0" lane="1925_0" length="250" pos="9.289999999999987"/>
    <laneAreaDetector file="e2output.xml" freq="60" speedThreshold="100" friendlyPos="x" id="e2det_251_0" lane="251_0" length="250" pos="330.97"/>
    <laneAreaDetector file="e2output.xml" freq="60" speedThreshold="100" friendlyPos="x" id="e2det_-1636_0" lane="-1636_0" length="250" pos="16.080000000000005"/>
    <laneAreaDetector file="e2output.xml" freq="60" speedThreshold="100" friendlyPos="x" id="e2det_274_0" lane="274_0" length="250" pos="530.97"/>
    <laneAreaDetector file="e2output.xml" freq="60" speedThreshold="100" friendlyPos="x" id="e2det_285_0" lane="285_0" length="250" pos="535.5"/>
    <laneAreaDetector file="e2output.xml" freq="60" speedThreshold="100" friendlyPos="x" id="e2det_350_0" lane="350_0" length="250" pos="535.5"/>
    <laneAreaDetector file="e2output.xml" freq="60" speedThreshold="100" friendlyPos="x" id="e2det_-1638_0" lane="-1638_0" length="250" pos="142.70000000000002"/>
    <laneAreaDetector file="e2output.xml" freq="60" speedThreshold="100" friendlyPos="x" id="e2det_-1640_0" lane="-1640_0" length="250" pos="342.69999999999993"/>
    <laneAreaDetector file="e2output.xml" freq="60" speedThreshold="100" friendlyPos="x" id="e2det_619_0" lane="619_0" length="250" pos="535.5"/>
    <laneAreaDetector file="e2output.xml" freq="60" speedThreshold="100" friendlyPos="x" id="e2det_-1646_0" lane="-1646_0" length="187.37" pos="0"/>
    <laneAreaDetector file="e2output.xml" freq="60" speedThreshold="100" friendlyPos="x" id="e2det_-1692_0" lane="-1692_0" length="189.5" pos="0"/>
    <laneAreaDetector file="e2output.xml" freq="60" speedThreshold="100" friendlyPos="x" id="e2det_1592_0" lane="1592_0" length="250" pos="335.5"/>
    <laneAreaDetector file="e2output.xml" freq="60" speedThreshold="100" friendlyPos="x" id="e2det_-1795_0" lane="-1795_0" length="250" pos="562.4"/>
    <laneAreaDetector file="e2output.xml" freq="60" speedThreshold="100" friendlyPos="x" id="e2det_1599_0" lane="1599_0" length="250" pos="337.0799999999999"/>
    <laneAreaDetector file="e2output.xml" freq="60" speedThreshold="100" friendlyPos="x" id="e2det_1636_0" lane="1636_0" length="250" pos="16.080000000000005"/>
    <laneAreaDetector file="e2output.xml" freq="60" speedThreshold="100" friendlyPos="x" id="e2det_-1813_0" lane="-1813_0" length="180.97" pos="0"/>
    <laneAreaDetector file="e2output.xml" freq="60" speedThreshold="100" friendlyPos="x" id="e2det_-1845_0" lane="-1845_0" length="180.97" pos="0"/>
    <laneAreaDetector file="e2output.xml" freq="60" speedThreshold="100" friendlyPos="x" id="e2det_1619_0" lane="1619_0" length="180.97" pos="0"/>
    <laneAreaDetector file="e2output.xml" freq="60" speedThreshold="100" friendlyPos="x" id="e2det_-1885_0" lane="-1885_0" length="250" pos="134.6"/>
    <laneAreaDetector file="e2output.xml" freq="60" speedThreshold="100" friendlyPos="x" id="e2det_-526_0" lane="-526_0" length="250" pos="535.5"/>
    <laneAreaDetector file="e2output.xml" freq="60" speedThreshold="100" friendlyPos="x" id="e2det_-924_0" lane="-924_0" length="250" pos="534.26"/>
    <laneAreaDetector file="e2output.xml" freq="60" speedThreshold="100" friendlyPos="x" id="e2det_356_0" lane="356_0" length="250" pos="535.5"/>
    <laneAreaDetector file="e2output.xml" freq="60" speedThreshold="100" friendlyPos="x" id="e2det_-1892_0" lane="-1892_0" length="250" pos="559.92"/>
    <laneAreaDetector file="e2output.xml" freq="60" speedThreshold="100" friendlyPos="x" id="e2det_-762_0" lane="-762_0" length="180.97" pos="0"/>
    <laneAreaDetector file="e2output.xml" freq="60" speedThreshold="100" friendlyPos="x" id="e2det_551_0" lane="551_0" length="180.97" pos="0"/>
    <laneAreaDetector file="e2output.xml" freq="60" speedThreshold="100" friendlyPos="x" id="e2det_-1894_0" lane="-1894_0" length="250" pos="9.289999999999987"/>
    <laneAreaDetector file="e2output.xml" freq="60" speedThreshold="100" friendlyPos="x" id="e2det_-1924_0" lane="-1924_0" length="250" pos="130.45000000000002"/>
    <laneAreaDetector file="e2output.xml" freq="60" speedThreshold="100" friendlyPos="x" id="e2det_1813_0" lane="1813_0" length="180.97" pos="0"/>
    <laneAreaDetector file="e2output.xml" freq="60" speedThreshold="100" friendlyPos="x" id="e2det_-191_0" lane="-191_0" length="250" pos="20.21999999999999"/>
    <laneAreaDetector file="e2output.xml" freq="60" speedThreshold="100" friendlyPos="x" id="e2det_-52_0" lane="-52_0" length="250" pos="292.13"/>
    <laneAreaDetector file="e2output.xml" freq="60" speedThreshold="100" friendlyPos="x" id="e2det_44_0" lane="44_0" length="250" pos="130.97"/>
    <laneAreaDetector file="e2output.xml" freq="60" speedThreshold="100" friendlyPos="x" id="e2det_-1925_0" lane="-1925_0" length="250" pos="9.289999999999987"/>
    <laneAreaDetector file="e2output.xml" freq="60" speedThreshold="100" friendlyPos="x" id="e2det_-1926_0" lane="-1926_0" length="250" pos="17.820000000000014"/>
    <laneAreaDetector file="e2output.xml" freq="60" speedThreshold="100" friendlyPos="x" id="e2det_1845_0" lane="1845_0" length="180.97" pos="0"/>
    <laneAreaDetector file="e2output.xml" freq="60" speedThreshold="100" friendlyPos="x" id="e2det_1894_0" lane="1894_0" length="250" pos="9.289999999999987"/>
    <laneAreaDetector file="e2output.xml" freq="60" speedThreshold="100" friendlyPos="x" id="e2det_-1947_0" lane="-1947_0" length="196.70000000000002" pos="0"/>
    <laneAreaDetector file="e2output.xml" freq="60" speedThreshold="100" friendlyPos="x" id="e2det_1692_0" lane="1692_0" length="189.5" pos="0"/>
    <laneAreaDetector file="e2output.xml" freq="60" speedThreshold="100" friendlyPos="x" id="e2det_-195_0" lane="-195_0" length="250" pos="328.19999999999993"/>
    <laneAreaDetector file="e2output.xml" freq="60" speedThreshold="100" friendlyPos="x" id="e2det_-211_0" lane="-211_0" length="250" pos="574.98"/>
    <laneAreaDetector file="e2output.xml" freq="60" speedThreshold="100" friendlyPos="x" id="e2det_71_0" lane="71_0" length="250" pos="335.5"/>
    <laneAreaDetector file="e2output.xml" freq="60" speedThreshold="100" friendlyPos="x" id="e2det_-1959_0" lane="-1959_0" length="250" pos="535.5"/>
    <laneAreaDetector file="e2output.xml" freq="60" speedThreshold="100" friendlyPos="x" id="e2det_-2880_0" lane="-2880_0" length="250" pos="15.69000000000002"/>
    <laneAreaDetector file="e2output.xml" freq="60" speedThreshold="100" friendlyPos="x" id="e2det_917_0" lane="917_0" length="250" pos="135.50000000000003"/>
    <laneAreaDetector file="e2output.xml" freq="60" speedThreshold="100" friendlyPos="x" id="e2det_-1965_0" lane="-1965_0" length="250" pos="364.74"/>
    <laneAreaDetector file="e2output.xml" freq="60" speedThreshold="100" friendlyPos="x" id="e2det_-1985_0" lane="-1985_0" length="250" pos="529.73"/>
    <laneAreaDetector file="e2output.xml" freq="60" speedThreshold="100" friendlyPos="x" id="e2det_1885_0" lane="1885_0" length="250" pos="134.6"/>
    <laneAreaDetector file="e2output.xml" freq="60" speedThreshold="100" friendlyPos="x" id="e2det_1892_0" lane="1892_0" length="250" pos="559.92"/>
    <laneAreaDetector file="e2output.xml" freq="60" speedThreshold="100" friendlyPos="x" id="e2det_-203_0" lane="-203_0" length="250" pos="335.5"/>
    <laneAreaDetector file="e2output.xml" freq="60" speedThreshold="100" friendlyPos="x" id="e2det_-23_0" lane="-23_0" length="185.5" pos="0"/>
    <laneAreaDetector file="e2output.xml" freq="60" speedThreshold="100" friendlyPos="x" id="e2det_-694_0" lane="-694_0" length="250" pos="339.5"/>
    <laneAreaDetector file="e2output.xml" freq="60" speedThreshold="100" friendlyPos="x" id="e2det_11_0" lane="11_0" length="185.5" pos="0"/>
    <laneAreaDetector file="e2output.xml" freq="60" speedThreshold="100" friendlyPos="x" id="e2det_-208_0" lane="-208_0" length="250" pos="455.31999999999994"/>
    <laneAreaDetector file="e2output.xml" freq="60" speedThreshold="100" friendlyPos="x" id="e2det_-210_0" lane="-210_0" length="250" pos="330.97"/>
    <laneAreaDetector file="e2output.xml" freq="60" speedThreshold="100" friendlyPos="x" id="e2det_195_0" lane="195_0" length="250" pos="328.19999999999993"/>
    <laneAreaDetector file="e2output.xml" freq="60" speedThreshold="100" friendlyPos="x" id="e2det_-2128_0" lane="-2128_0" length="250" pos="146.70000000000002"/>
    <laneAreaDetector file="e2output.xml" freq="60" speedThreshold="100" friendlyPos="x" id="e2det_1947_0" lane="1947_0" length="196.70000000000002" pos="0"/>
    <laneAreaDetector file="e2output.xml" freq="60" speedThreshold="100" friendlyPos="x" id="e2det_-2136_0" lane="-2136_0" length="250" pos="330.97"/>
    <laneAreaDetector file="e2output.xml" freq="60" speedThreshold="100" friendlyPos="x" id="e2det_-2333_0" lane="-2333_0" length="250" pos="574.98"/>
    <laneAreaDetector file="e2output.xml" freq="60" speedThreshold="100" friendlyPos="x" id="e2det_-2667_0" lane="-2667_0" length="250" pos="737.52"/>
    <laneAreaDetector file="e2output.xml" freq="60" speedThreshold="100" friendlyPos="x" id="e2det_349_0" lane="349_0" length="250" pos="135.50000000000003"/>
    <laneAreaDetector file="e2output.xml" freq="60" speedThreshold="100" friendlyPos="x" id="e2det_-2139_0" lane="-2139_0" length="192.70000000000002" pos="0"/>
    <laneAreaDetector file="e2output.xml" freq="60" speedThreshold="100" friendlyPos="x" id="e2det_-2145_0" lane="-2145_0" length="250" pos="130.97"/>
    <laneAreaDetector file="e2output.xml" freq="60" speedThreshold="100" friendlyPos="x" id="e2det_-2149_0" lane="-2149_0" length="250" pos="130.97"/>
    <laneAreaDetector file="e2output.xml" freq="60" speedThreshold="100" friendlyPos="x" id="e2det_1959_0" lane="1959_0" length="250" pos="535.5"/>
    <laneAreaDetector file="e2output.xml" freq="60" speedThreshold="100" friendlyPos="x" id="e2det_-2155_0" lane="-2155_0" length="250" pos="577.52"/>
    <laneAreaDetector file="e2output.xml" freq="60" speedThreshold="100" friendlyPos="x" id="e2det_-2157_0" lane="-2157_0" length="250" pos="137.37000000000003"/>
    <laneAreaDetector file="e2output.xml" freq="60" speedThreshold="100" friendlyPos="x" id="e2det_1985_0" lane="1985_0" length="250" pos="529.73"/>
    <laneAreaDetector file="e2output.xml" freq="60" speedThreshold="100" friendlyPos="x" id="e2det_-2167_0" lane="-2167_0" length="183.94" pos="0"/>
    <laneAreaDetector file="e2output.xml" freq="60" speedThreshold="100" friendlyPos="x" id="e2det_-2704_0" lane="-2704_0" length="250" pos="185.96"/>
    <laneAreaDetector file="e2output.xml" freq="60" speedThreshold="100" friendlyPos="x" id="e2det_366_0" lane="366_0" length="250" pos="334.16999999999996"/>
    <laneAreaDetector file="e2output.xml" freq="60" speedThreshold="100" friendlyPos="x" id="e2det_398_0" lane="398_0" length="250" pos="729.1"/>
    <laneAreaDetector file="e2output.xml" freq="60" speedThreshold="100" friendlyPos="x" id="e2det_-2179_0" lane="-2179_0" length="250" pos="458.66999999999996"/>
    <laneAreaDetector file="e2output.xml" freq="60" speedThreshold="100" friendlyPos="x" id="e2det_-583_0" lane="-583_0" length="250" pos="532.72"/>
    <laneAreaDetector file="e2output.xml" freq="60" speedThreshold="100" friendlyPos="x" id="e2det_15_0" lane="15_0" length="250" pos="535.5"/>
    <laneAreaDetector file="e2output.xml" freq="60" speedThreshold="100" friendlyPos="x" id="e2det_-2185_0" lane="-2185_0" length="250" pos="574.98"/>
    <laneAreaDetector file="e2output.xml" freq="60" speedThreshold="100" friendlyPos="x" id="e2det_-2191_0" lane="-2191_0" length="250" pos="138.17"/>
    <laneAreaDetector file="e2output.xml" freq="60" speedThreshold="100" friendlyPos="x" id="e2det_1646_0" lane="1646_0" length="187.37" pos="0"/>
    <laneAreaDetector file="e2output.xml" freq="60" speedThreshold="100" friendlyPos="x" id="e2det_-221_0" lane="-221_0" length="250" pos="335.5"/>
    <laneAreaDetector file="e2output.xml" freq="60" speedThreshold="100" friendlyPos="x" id="e2det_191_0" lane="191_0" length="250" pos="20.21999999999999"/>
    <laneAreaDetector file="e2output.xml" freq="60" speedThreshold="100" friendlyPos="x" id="e2det_83_0" lane="83_0" length="250" pos="535.5"/>
    <laneAreaDetector file="e2output.xml" freq="60" speedThreshold="100" friendlyPos="x" id="e2det_-223_0" lane="-223_0" length="185.5" pos="0"/>
    <laneAreaDetector file="e2output.xml" freq="60" speedThreshold="100" friendlyPos="x" id="e2det_-882_0" lane="-882_0" length="250" pos="335.5"/>
    <laneAreaDetector file="e2output.xml" freq="60" speedThreshold="100" friendlyPos="x" id="e2det_23_0" lane="23_0" length="185.5" pos="0"/>
    <laneAreaDetector file="e2output.xml" freq="60" speedThreshold="100" friendlyPos="x" id="e2det_-2304_0" lane="-2304_0" length="250" pos="135.50000000000003"/>
    <laneAreaDetector file="e2output.xml" freq="60" speedThreshold="100" friendlyPos="x" id="e2det_-2312_0" lane="-2312_0" length="250" pos="330.97"/>
    <laneAreaDetector file="e2output.xml" freq="60" speedThreshold="100" friendlyPos="x" id="e2det_-2332_0" lane="-2332_0" length="185.5" pos="0"/>
    <laneAreaDetector file="e2output.xml" freq="60" speedThreshold="100" friendlyPos="x" id="e2det_2136_0" lane="2136_0" length="250" pos="330.97"/>
    <laneAreaDetector file="e2output.xml" freq="60" speedThreshold="100" friendlyPos="x" id="e2det_-2336_0" lane="-2336_0" length="250" pos="292.13"/>
    <laneAreaDetector file="e2output.xml" freq="60" speedThreshold="100" friendlyPos="x" id="e2det_-2742_0" lane="-2742_0" length="250" pos="292.13"/>
    <laneAreaDetector file="e2output.xml" freq="60" speedThreshold="100" friendlyPos="x" id="e2det_-2744_0" lane="-2744_0" length="250" pos="130.97"/>
    <laneAreaDetector file="e2output.xml" freq="60" speedThreshold="100" friendlyPos="x" id="e2det_2145_0" lane="2145_0" length="250" pos="130.97"/>
    <laneAreaDetector file="e2output.xml" freq="60" speedThreshold="100" friendlyPos="x" id="e2det_-2345_0" lane="-2345_0" length="250" pos="130.97"/>
    <laneAreaDetector file="e2output.xml" freq="60" speedThreshold="100" friendlyPos="x" id="e2det_-2349_0" lane="-2349_0" length="185.5" pos="0"/>
    <laneAreaDetector file="e2output.xml" freq="60" speedThreshold="100" friendlyPos="x" id="e2det_-2353_0" lane="-2353_0" length="250" pos="130.97"/>
    <laneAreaDetector file="e2output.xml" freq="60" speedThreshold="100" friendlyPos="x" id="e2det_2157_0" lane="2157_0" length="250" pos="137.37000000000003"/>
    <laneAreaDetector file="e2output.xml" freq="60" speedThreshold="100" friendlyPos="x" id="e2det_-2357_0" lane="-2357_0" length="250" pos="451.04999999999995"/>
    <laneAreaDetector file="e2output.xml" freq="60" speedThreshold="100" friendlyPos="x" id="e2det_-2358_0" lane="-2358_0" length="250" pos="9.289999999999987"/>
    <laneAreaDetector file="e2output.xml" freq="60" speedThreshold="100" friendlyPos="x" id="e2det_-2376_0" lane="-2376_0" length="250" pos="528.1999999999999"/>
    <laneAreaDetector file="e2output.xml" freq="60" speedThreshold="100" friendlyPos="x" id="e2det_2003_0" lane="2003_0" length="180.97" pos="0"/>
    <laneAreaDetector file="e2output.xml" freq="60" speedThreshold="100" friendlyPos="x" id="e2det_-237_0" lane="-237_0" length="250" pos="535.5"/>
    <laneAreaDetector file="e2output.xml" freq="60" speedThreshold="100" friendlyPos="x" id="e2det_-247_0" lane="-247_0" length="250" pos="535.5"/>
    <laneAreaDetector file="e2output.xml" freq="60" speedThreshold="100" friendlyPos="x" id="e2det_210_0" lane="210_0" length="250" pos="330.97"/>
    <laneAreaDetector file="e2output.xml" freq="60" speedThreshold="100" friendlyPos="x" id="e2det_211_0" lane="211_0" length="250" pos="574.98"/>
    <laneAreaDetector file="e2output.xml" freq="60" speedThreshold="100" friendlyPos="x" id="e2det_-2382_0" lane="-2382_0" length="250" pos="451.04999999999995"/>
    <laneAreaDetector file="e2output.xml" freq="60" speedThreshold="100" friendlyPos="x" id="e2det_-2386_0" lane="-2386_0" length="250" pos="529.9399999999999"/>
    <laneAreaDetector file="e2output.xml" freq="60" speedThreshold="100" friendlyPos="x" id="e2det_2167_0" lane="2167_0" length="183.94" pos="0"/>
    <laneAreaDetector file="e2output.xml" freq="60" speedThreshold="100" friendlyPos="x" id="e2det_2357_0" lane="2357_0" length="250" pos="451.04999999999995"/>
    <laneAreaDetector file="e2output.xml" freq="60" speedThreshold="100" friendlyPos="x" id="e2det_-2417_0" lane="-2417_0" length="250" pos="340.72"/>
    <laneAreaDetector file="e2output.xml" freq="60" speedThreshold="100" friendlyPos="x" id="e2det_-2449_0" lane="-2449_0" length="192.70000000000002" pos="0"/>
    <laneAreaDetector file="e2output.xml" freq="60" speedThreshold="100" friendlyPos="x" id="e2det_1328_0" lane="1328_0" length="185.5" pos="0"/>
    <laneAreaDetector file="e2output.xml" freq="60" speedThreshold="100" friendlyPos="x" id="e2det_-249_0" lane="-249_0" length="250" pos="535.5"/>
    <laneAreaDetector file="e2output.xml" freq="60" speedThreshold="100" friendlyPos="x" id="e2det_-251_0" lane="-251_0" length="250" pos="330.97"/>
    <laneAreaDetector file="e2output.xml" freq="60" speedThreshold="100" friendlyPos="x" id="e2det_-263_0" lane="-263_0" length="250" pos="535.5"/>
    <laneAreaDetector file="e2output.xml" freq="60" speedThreshold="100" friendlyPos="x" id="e2det_221_0" lane="221_0" length="250" pos="335.5"/>
    <laneAreaDetector file="e2output.xml" freq="60" speedThreshold="100" friendlyPos="x" id="e2det_-2665_0" lane="-2665_0" length="250" pos="135.50000000000003"/>
    <laneAreaDetector file="e2output.xml" freq="60" speedThreshold="100" friendlyPos="x" id="e2det_-3534_0" lane="-3534_0" length="250" pos="142.70000000000002"/>
    <laneAreaDetector file="e2output.xml" freq="60" speedThreshold="100" friendlyPos="x" id="e2det_2332_0" lane="2332_0" length="185.5" pos="0"/>
    <laneAreaDetector file="e2output.xml" freq="60" speedThreshold="100" friendlyPos="x" id="e2det_-2678_0" lane="-2678_0" length="250" pos="292.13"/>
    <laneAreaDetector file="e2output.xml" freq="60" speedThreshold="100" friendlyPos="x" id="e2det_-2690_0" lane="-2690_0" length="250" pos="329.0"/>
    <laneAreaDetector file="e2output.xml" freq="60" speedThreshold="100" friendlyPos="x" id="e2det_2353_0" lane="2353_0" length="250" pos="130.97"/>
    <laneAreaDetector file="e2output.xml" freq="60" speedThreshold="100" friendlyPos="x" id="e2det_2667_0" lane="2667_0" length="250" pos="737.52"/>
    <laneAreaDetector file="e2output.xml" freq="60" speedThreshold="100" friendlyPos="x" id="e2det_-2693_0" lane="-2693_0" length="250" pos="452.23"/>
    <laneAreaDetector file="e2output.xml" freq="60" speedThreshold="100" friendlyPos="x" id="e2det_2376_0" lane="2376_0" length="250" pos="528.1999999999999"/>
    <laneAreaDetector file="e2output.xml" freq="60" speedThreshold="100" friendlyPos="x" id="e2det_2382_0" lane="2382_0" length="250" pos="451.04999999999995"/>
    <laneAreaDetector file="e2output.xml" freq="60" speedThreshold="100" friendlyPos="x" id="e2det_-27_0" lane="-27_0" length="250" pos="130.97"/>
    <laneAreaDetector file="e2output.xml" freq="60" speedThreshold="100" friendlyPos="x" id="e2det_3_0" lane="3_0" length="250" pos="537.37"/>
    <laneAreaDetector file="e2output.xml" freq="60" speedThreshold="100" friendlyPos="x" id="e2det_52_0" lane="52_0" length="250" pos="292.13"/>
    <laneAreaDetector file="e2output.xml" freq="60" speedThreshold="100" friendlyPos="x" id="e2det_-2700_0" lane="-2700_0" length="250" pos="334.6"/>
    <laneAreaDetector file="e2output.xml" freq="60" speedThreshold="100" friendlyPos="x" id="e2det_-322_0" lane="-322_0" length="250" pos="335.5"/>
    <laneAreaDetector file="e2output.xml" freq="60" speedThreshold="100" friendlyPos="x" id="e2det_1093_0" lane="1093_0" length="250" pos="558.3199999999999"/>
    <laneAreaDetector file="e2output.xml" freq="60" speedThreshold="100" friendlyPos="x" id="e2det_249_0" lane="249_0" length="250" pos="535.5"/>
    <laneAreaDetector file="e2output.xml" freq="60" speedThreshold="100" friendlyPos="x" id="e2det_-2703_0" lane="-2703_0" length="250" pos="535.5"/>
    <laneAreaDetector file="e2output.xml" freq="60" speedThreshold="100" friendlyPos="x" id="e2det_2386_0" lane="2386_0" length="250" pos="529.9399999999999"/>
    <laneAreaDetector file="e2output.xml" freq="60" speedThreshold="100" friendlyPos="x" id="e2det_2693_0" lane="2693_0" length="250" pos="452.23"/>
    <laneAreaDetector file="e2output.xml" freq="60" speedThreshold="100" friendlyPos="x" id="e2det_-2718_0" lane="-2718_0" length="189.5" pos="0"/>
    <laneAreaDetector file="e2output.xml" freq="60" speedThreshold="100" friendlyPos="x" id="e2det_738_0" lane="738_0" length="189.5" pos="0"/>
    <laneAreaDetector file="e2output.xml" freq="60" speedThreshold="100" friendlyPos="x" id="e2det_-2733_0" lane="-2733_0" length="180.97" pos="0"/>
    <laneAreaDetector file="e2output.xml" freq="60" speedThreshold="100" friendlyPos="x" id="e2det_-2735_0" lane="-2735_0" length="180.97" pos="0"/>
    <laneAreaDetector file="e2output.xml" freq="60" speedThreshold="100" friendlyPos="x" id="e2det_2665_0" lane="2665_0" length="250" pos="135.50000000000003"/>
    <laneAreaDetector file="e2output.xml" freq="60" speedThreshold="100" friendlyPos="x" id="e2det_-274_0" lane="-274_0" length="250" pos="530.97"/>
    <laneAreaDetector file="e2output.xml" freq="60" speedThreshold="100" friendlyPos="x" id="e2det_-284_0" lane="-284_0" length="185.5" pos="0"/>
    <laneAreaDetector file="e2output.xml" freq="60" speedThreshold="100" friendlyPos="x" id="e2det_237_0" lane="237_0" length="250" pos="535.5"/>
    <laneAreaDetector file="e2output.xml" freq="60" speedThreshold="100" friendlyPos="x" id="e2det_-2740_0" lane="-2740_0" length="188.17000000000002" pos="0"/>
    <laneAreaDetector file="e2output.xml" freq="60" speedThreshold="100" friendlyPos="x" id="e2det_2139_0" lane="2139_0" length="192.70000000000002" pos="0"/>
    <laneAreaDetector file="e2output.xml" freq="60" speedThreshold="100" friendlyPos="x" id="e2det_-2758_0" lane="-2758_0" length="250" pos="179.50000000000003"/>
    <laneAreaDetector file="e2output.xml" freq="60" speedThreshold="100" friendlyPos="x" id="e2det_-2766_0" lane="-2766_0" length="250" pos="335.5"/>