<configuration>
    <input>
        <net-file value="rand.net.xml"/>
        <route-files value="rand.rou.xml"/>
        <additional-files value="rand.add.xml"/>
    </input>
</configuration>