<?xml version="1.0" encoding="UTF-8"?>

<!-- generated on 2021-06-20 22:51:51 by Eclipse SUMO netgenerate Version 1.9.2
<configuration xmlns:xsi="http://www.w3.org/2001/XMLSchema-instance" xsi:noNamespaceSchemaLocation="http://sumo.dlr.de/xsd/netgenerateConfiguration.xsd">

    <random_network>
        <rand value="true"/>
        <rand.iterations value="200"/>
        <rand.max-distance value="1000"/>
        <rand.min-distance value="200"/>
        <rand.min-angle value="45"/>
        <rand.neighbor-dist1 value="0"/>
        <rand.neighbor-dist2 value="0"/>
        <rand.neighbor-dist3 value="1"/>
        <rand.neighbor-dist4 value="1"/>
        <rand.neighbor-dist5 value="0"/>
        <rand.neighbor-dist6 value="0"/>
        <rand.grid value="true"/>
    </random_network>

    <input>
        <type-files value="../edge.typ.xml"/>
    </input>

    <output>
        <output-file value="rand.net.xml"/>
    </output>

    <building_defaults>
        <default.type value="two_lane"/>
        <default-junction-type value="traffic_light"/>
    </building_defaults>

    <junctions>
        <no-turnarounds value="true"/>
    </junctions>

</configuration>
-->

<net version="1.9" junctionCornerDetail="5" limitTurnSpeed="5.50" xmlns:xsi="http://www.w3.org/2001/XMLSchema-instance" xsi:noNamespaceSchemaLocation="http://sumo.dlr.de/xsd/net_file.xsd">

    <location netOffset="3200.00,5800.00" convBoundary="0.00,0.00,10000.00,10600.00" origBoundary="-3200.00,-5800.00,6800.00,4800.00" projParameter="!"/>

    <edge id=":1_0" function="internal">
        <lane id=":1_0_0" index="0" speed="6.51" length="9.03" shape="3198.40,5807.20 3198.05,5804.75 3197.00,5803.00 3195.25,5801.95 3192.80,5801.60"/>
    </edge>
    <edge id=":1_1" function="internal">
        <lane id=":1_1_0" index="0" speed="13.89" length="14.40" shape="3198.40,5807.20 3198.40,5792.80"/>
    </edge>
    <edge id=":1_2" function="internal">
        <lane id=":1_2_0" index="0" speed="8.00" length="5.93" shape="3198.40,5807.20 3198.95,5803.35 3200.00,5801.60"/>
    </edge>
    <edge id=":1_12" function="internal">
        <lane id=":1_12_0" index="0" speed="8.00" length="8.26" shape="3200.00,5801.60 3200.60,5800.60 3203.35,5798.95 3207.20,5798.40"/>
    </edge>
    <edge id=":1_3" function="internal">
        <lane id=":1_3_0" index="0" speed="6.51" length="9.03" shape="3207.20,5801.60 3204.75,5801.95 3203.00,5803.00 3201.95,5804.75 3201.60,5807.20"/>
    </edge>
    <edge id=":1_4" function="internal">
        <lane id=":1_4_0" index="0" speed="13.89" length="14.40" shape="3207.20,5801.60 3192.80,5801.60"/>
    </edge>
    <edge id=":1_5" function="internal">
        <lane id=":1_5_0" index="0" speed="8.00" length="5.93" shape="3207.20,5801.60 3203.35,5801.05 3201.60,5800.00"/>
    </edge>
    <edge id=":1_13" function="internal">
        <lane id=":1_13_0" index="0" speed="8.00" length="8.26" shape="3201.60,5800.00 3200.60,5799.40 3198.95,5796.65 3198.40,5792.80"/>
    </edge>
    <edge id=":1_6" function="internal">
        <lane id=":1_6_0" index="0" speed="6.51" length="9.03" shape="3201.60,5792.80 3201.95,5795.25 3203.00,5797.00 3204.75,5798.05 3207.20,5798.40"/>
    </edge>
    <edge id=":1_7" function="internal">
        <lane id=":1_7_0" index="0" speed="13.89" length="14.40" shape="3201.60,5792.80 3201.60,5807.20"/>
    </edge>
    <edge id=":1_8" function="internal">
        <lane id=":1_8_0" index="0" speed="8.00" length="5.93" shape="3201.60,5792.80 3201.05,5796.65 3200.00,5798.40"/>
    </edge>
    <edge id=":1_14" function="internal">
        <lane id=":1_14_0" index="0" speed="8.00" length="8.26" shape="3200.00,5798.40 3199.40,5799.40 3196.65,5801.05 3192.80,5801.60"/>
    </edge>
    <edge id=":1_9" function="internal">
        <lane id=":1_9_0" index="0" speed="6.51" length="9.03" shape="3192.80,5798.40 3195.25,5798.05 3197.00,5797.00 3198.05,5795.25 3198.40,5792.80"/>
    </edge>
    <edge id=":1_10" function="internal">
        <lane id=":1_10_0" index="0" speed="13.89" length="14.40" shape="3192.80,5798.40 3207.20,5798.40"/>
    </edge>
    <edge id=":1_11" function="internal">
        <lane id=":1_11_0" index="0" speed="8.00" length="5.93" shape="3192.80,5798.40 3196.65,5798.95 3198.40,5800.00"/>
    </edge>
    <edge id=":1_15" function="internal">
        <lane id=":1_15_0" index="0" speed="8.00" length="8.26" shape="3198.40,5800.00 3199.40,5800.60 3201.05,5803.35 3201.60,5807.20"/>
    </edge>
    <edge id=":10_0" function="internal">
        <lane id=":10_0_0" index="0" speed="6.51" length="9.03" shape="2998.40,5807.20 2998.05,5804.75 2997.00,5803.00 2995.25,5801.95 2992.80,5801.60"/>
    </edge>
    <edge id=":10_1" function="internal">
        <lane id=":10_1_0" index="0" speed="13.89" length="14.40" shape="2998.40,5807.20 2998.40,5792.80"/>
    </edge>
    <edge id=":10_2" function="internal">
        <lane id=":10_2_0" index="0" speed="8.00" length="5.93" shape="2998.40,5807.20 2998.95,5803.35 3000.00,5801.60"/>
    </edge>
    <edge id=":10_12" function="internal">
        <lane id=":10_12_0" index="0" speed="8.00" length="8.26" shape="3000.00,5801.60 3000.60,5800.60 3003.35,5798.95 3007.20,5798.40"/>
    </edge>
    <edge id=":10_3" function="internal">
        <lane id=":10_3_0" index="0" speed="6.51" length="9.03" shape="3007.20,5801.60 3004.75,5801.95 3003.00,5803.00 3001.95,5804.75 3001.60,5807.20"/>
    </edge>
    <edge id=":10_4" function="internal">
        <lane id=":10_4_0" index="0" speed="13.89" length="14.40" shape="3007.20,5801.60 2992.80,5801.60"/>
    </edge>
    <edge id=":10_5" function="internal">
        <lane id=":10_5_0" index="0" speed="8.00" length="5.93" shape="3007.20,5801.60 3003.35,5801.05 3001.60,5800.00"/>
    </edge>
    <edge id=":10_13" function="internal">
        <lane id=":10_13_0" index="0" speed="8.00" length="8.26" shape="3001.60,5800.00 3000.60,5799.40 2998.95,5796.65 2998.40,5792.80"/>
    </edge>
    <edge id=":10_6" function="internal">
        <lane id=":10_6_0" index="0" speed="6.51" length="9.03" shape="3001.60,5792.80 3001.95,5795.25 3003.00,5797.00 3004.75,5798.05 3007.20,5798.40"/>
    </edge>
    <edge id=":10_7" function="internal">
        <lane id=":10_7_0" index="0" speed="13.89" length="14.40" shape="3001.60,5792.80 3001.60,5807.20"/>
    </edge>
    <edge id=":10_8" function="internal">
        <lane id=":10_8_0" index="0" speed="8.00" length="5.93" shape="3001.60,5792.80 3001.05,5796.65 3000.00,5798.40"/>
    </edge>
    <edge id=":10_14" function="internal">
        <lane id=":10_14_0" index="0" speed="8.00" length="8.26" shape="3000.00,5798.40 2999.40,5799.40 2996.65,5801.05 2992.80,5801.60"/>
    </edge>
    <edge id=":10_9" function="internal">
        <lane id=":10_9_0" index="0" speed="6.51" length="9.03" shape="2992.80,5798.40 2995.25,5798.05 2997.00,5797.00 2998.05,5795.25 2998.40,5792.80"/>
    </edge>
    <edge id=":10_10" function="internal">
        <lane id=":10_10_0" index="0" speed="13.89" length="14.40" shape="2992.80,5798.40 3007.20,5798.40"/>
    </edge>
    <edge id=":10_11" function="internal">
        <lane id=":10_11_0" index="0" speed="8.00" length="5.93" shape="2992.80,5798.40 2996.65,5798.95 2998.40,5800.00"/>
    </edge>
    <edge id=":10_15" function="internal">
        <lane id=":10_15_0" index="0" speed="8.00" length="8.26" shape="2998.40,5800.00 2999.40,5800.60 3001.05,5803.35 3001.60,5807.20"/>
    </edge>
    <edge id=":1096_0" function="internal">
        <lane id=":1096_0_0" index="0" speed="5.47" length="9.74" shape="5198.40,2811.73 5198.05,2808.63 5197.01,2807.22 5195.27,2807.48 5192.84,2809.42"/>
    </edge>
    <edge id=":1096_1" function="internal">
        <lane id=":1096_1_0" index="0" speed="13.89" length="18.93" shape="5198.40,2811.73 5198.40,2792.80"/>
    </edge>
    <edge id=":1096_2" function="internal">
        <lane id=":1096_2_0" index="0" speed="8.71" length="6.41" shape="5198.40,2811.73 5199.16,2807.40 5200.00,2805.56"/>
    </edge>
    <edge id=":1096_12" function="internal">
        <lane id=":1096_12_0" index="0" speed="8.71" length="10.61" shape="5200.00,2805.56 5201.15,2803.07 5203.97,2799.73 5207.20,2798.40"/>
    </edge>
    <edge id=":1096_3" function="internal">
        <lane id=":1096_3_0" index="0" speed="7.65" length="12.89" shape="5207.20,2801.60 5204.75,2802.23 5203.00,2804.13 5201.95,2807.30 5201.60,2811.73"/>
    </edge>
    <edge id=":1096_4" function="internal">
        <lane id=":1096_4_0" index="0" speed="13.42" length="16.74" shape="5207.20,2801.60 5203.85,2802.09 5200.34,2803.56 5196.67,2806.00 5192.84,2809.42"/>
    </edge>
    <edge id=":1096_5" function="internal">
        <lane id=":1096_5_0" index="0" speed="8.00" length="4.39" shape="5207.20,2801.60 5203.35,2801.05 5202.92,2800.79"/>
    </edge>
    <edge id=":1096_13" function="internal">
        <lane id=":1096_13_0" index="0" speed="8.00" length="9.80" shape="5202.92,2800.79 5200.60,2799.40 5198.95,2796.65 5198.40,2792.80"/>
    </edge>
    <edge id=":1096_6" function="internal">
        <lane id=":1096_6_0" index="0" speed="6.51" length="9.03" shape="5201.60,2792.80 5201.95,2795.25 5203.00,2797.00 5204.75,2798.05 5207.20,2798.40"/>
    </edge>
    <edge id=":1096_7" function="internal">
        <lane id=":1096_7_0" index="0" speed="13.89" length="18.93" shape="5201.60,2792.80 5201.60,2811.73"/>
    </edge>
    <edge id=":1096_8" function="internal">
        <lane id=":1096_8_0" index="0" speed="13.89" length="5.82" shape="5201.60,2792.80 5200.85,2796.44 5200.00,2798.36"/>
    </edge>
    <edge id=":1096_14" function="internal">
        <lane id=":1096_14_0" index="0" speed="13.89" length="13.25" shape="5200.00,2798.36 5198.86,2800.94 5196.06,2805.53 5192.84,2809.42"/>
    </edge>
    <edge id=":1096_9" function="internal">
        <lane id=":1096_9_0" index="0" speed="13.42" length="16.74" shape="5190.58,2807.16 5194.00,2803.33 5196.44,2799.66 5197.91,2796.15 5198.40,2792.80"/>
    </edge>
    <edge id=":1096_10" function="internal">
        <lane id=":1096_10_0" index="0" speed="13.89" length="19.24" shape="5190.58,2807.16 5194.90,2803.33 5199.11,2800.59 5203.21,2798.95 5207.20,2798.40"/>
    </edge>
    <edge id=":1096_11" function="internal">
        <lane id=":1096_11_0" index="0" speed="7.42" length="9.34" shape="5190.58,2807.16 5195.40,2803.31 5198.53,2802.84"/>
    </edge>
    <edge id=":1096_15" function="internal">
        <lane id=":1096_15_0" index="0" speed="7.42" length="9.97" shape="5198.53,2802.84 5198.84,2802.79 5200.91,2805.59 5201.60,2811.73"/>
    </edge>
    <edge id=":1143_0" function="internal">
        <lane id=":1143_0_0" index="0" speed="13.89" length="14.40" shape="1998.40,5207.20 1998.40,5192.80"/>
    </edge>
    <edge id=":1143_1" function="internal">
        <lane id=":1143_1_0" index="0" speed="8.00" length="5.93" shape="1998.40,5207.20 1998.95,5203.35 2000.00,5201.60"/>
    </edge>
    <edge id=":1143_6" function="internal">
        <lane id=":1143_6_0" index="0" speed="8.00" length="8.26" shape="2000.00,5201.60 2000.60,5200.60 2003.35,5198.95 2007.20,5198.40"/>
    </edge>
    <edge id=":1143_2" function="internal">
        <lane id=":1143_2_0" index="0" speed="6.51" length="9.03" shape="2007.20,5201.60 2004.75,5201.95 2003.00,5203.00 2001.95,5204.75 2001.60,5207.20"/>
    </edge>
    <edge id=":1143_3" function="internal">
        <lane id=":1143_3_0" index="0" speed="8.00" length="14.19" shape="2007.20,5201.60 2003.35,5201.05 2000.60,5199.40 1998.95,5196.65 1998.40,5192.80"/>
    </edge>
    <edge id=":1143_4" function="internal">
        <lane id=":1143_4_0" index="0" speed="6.51" length="9.03" shape="2001.60,5192.80 2001.95,5195.25 2003.00,5197.00 2004.75,5198.05 2007.20,5198.40"/>
    </edge>
    <edge id=":1143_5" function="internal">
        <lane id=":1143_5_0" index="0" speed="13.89" length="14.40" shape="2001.60,5192.80 2001.60,5207.20"/>
    </edge>
    <edge id=":1170_0" function="internal">
        <lane id=":1170_0_0" index="0" speed="6.83" length="10.05" shape="3198.40,3408.44 3198.05,3405.45 3197.00,3403.31 3195.25,3402.03 3192.80,3401.60"/>
    </edge>
    <edge id=":1170_1" function="internal">
        <lane id=":1170_1_0" index="0" speed="7.55" length="15.59" shape="3198.40,3408.44 3199.03,3403.99 3200.93,3401.29 3204.09,3400.34 3208.51,3401.15"/>
    </edge>
    <edge id=":1170_2" function="internal">
        <lane id=":1170_2_0" index="0" speed="5.92" length="9.10" shape="3207.50,3404.19 3204.92,3403.72 3203.08,3404.27 3201.97,3405.84 3201.60,3408.44"/>
    </edge>
    <edge id=":1170_3" function="internal">
        <lane id=":1170_3_0" index="0" speed="13.89" length="14.99" shape="3207.50,3404.19 3203.91,3403.12 3200.25,3402.30 3196.54,3401.78 3192.80,3401.60"/>
    </edge>
    <edge id=":1170_4" function="internal">
        <lane id=":1170_4_0" index="0" speed="13.89" length="16.01" shape="3192.80,3398.40 3196.70,3398.61 3200.75,3399.18 3204.76,3400.05 3208.51,3401.15"/>
    </edge>
    <edge id=":1170_5" function="internal">
        <lane id=":1170_5_0" index="0" speed="8.26" length="6.47" shape="3192.80,3398.40 3196.65,3399.03 3198.77,3400.48"/>
    </edge>
    <edge id=":1170_6" function="internal">
        <lane id=":1170_6_0" index="0" speed="8.26" length="8.74" shape="3198.77,3400.48 3199.40,3400.91 3201.05,3404.05 3201.60,3408.44"/>
    </edge>
    <edge id=":1186_0" function="internal">
        <lane id=":1186_0_0" index="0" speed="5.47" length="9.74" shape="6198.40,2411.73 6198.05,2408.63 6197.01,2407.22 6195.27,2407.48 6192.84,2409.42"/>
    </edge>
    <edge id=":1186_1" function="internal">
        <lane id=":1186_1_0" index="0" speed="8.54" length="16.33" shape="6198.40,2411.73 6197.77,2407.30 6195.87,2404.13 6192.70,2402.23 6188.27,2401.60"/>
    </edge>
    <edge id=":1186_2" function="internal">
        <lane id=":1186_2_0" index="0" speed="9.73" length="21.49" shape="6188.27,2398.40 6194.10,2399.23 6198.27,2401.73 6200.77,2405.90 6201.60,2411.73"/>
    </edge>
    <edge id=":1186_3" function="internal">
        <lane id=":1186_3_0" index="0" speed="7.42" length="11.43" shape="6188.27,2398.40 6194.41,2399.09 6197.21,2401.16 6196.94,2402.91"/>
    </edge>
    <edge id=":1186_6" function="internal">
        <lane id=":1186_6_0" index="0" speed="7.42" length="7.88" shape="6196.94,2402.91 6196.69,2404.60 6192.84,2409.42"/>
    </edge>
    <edge id=":1186_4" function="internal">
        <lane id=":1186_4_0" index="0" speed="5.47" length="9.74" shape="6190.58,2407.16 6192.52,2404.73 6192.78,2402.99 6191.37,2401.95 6188.27,2401.60"/>
    </edge>
    <edge id=":1186_5" function="internal">
        <lane id=":1186_5_0" index="0" speed="7.42" length="19.31" shape="6190.58,2407.16 6195.40,2403.31 6198.84,2402.79 6200.91,2405.59 6201.60,2411.73"/>
    </edge>
    <edge id=":1201_0" function="internal">
        <lane id=":1201_0_0" index="0" speed="6.51" length="9.03" shape="1998.40,4807.20 1998.05,4804.75 1997.00,4803.00 1995.25,4801.95 1992.80,4801.60"/>
    </edge>
    <edge id=":1201_1" function="internal">
        <lane id=":1201_1_0" index="0" speed="13.89" length="13.70" shape="1998.40,4807.20 1998.53,4803.65 1998.98,4800.37 1999.85,4797.19 2001.24,4793.94"/>
    </edge>
    <edge id=":1201_2" function="internal">
        <lane id=":1201_2_0" index="0" speed="13.89" length="12.24" shape="2004.10,4795.37 2002.77,4798.40 2002.01,4801.09 2001.68,4803.87 2001.60,4807.20"/>
    </edge>
    <edge id=":1201_3" function="internal">
        <lane id=":1201_3_0" index="0" speed="9.65" length="4.86" shape="2004.10,4795.37 2002.23,4798.10 2001.01,4799.04"/>
    </edge>
    <edge id=":1201_6" function="internal">
        <lane id=":1201_6_0" index="0" speed="9.65" length="8.78" shape="2001.01,4799.04 1999.72,4800.04 1996.58,4801.21 1992.80,4801.60"/>
    </edge>
    <edge id=":1201_4" function="internal">
        <lane id=":1201_4_0" index="0" speed="8.37" length="10.08" shape="1992.80,4798.40 1995.66,4798.12 1998.02,4797.28 1999.88,4795.89 2001.24,4793.94"/>
    </edge>
    <edge id=":1201_5" function="internal">
        <lane id=":1201_5_0" index="0" speed="8.00" length="14.19" shape="1992.80,4798.40 1996.65,4798.95 1999.40,4800.60 2001.05,4803.35 2001.60,4807.20"/>
    </edge>
    <edge id=":1327_0" function="internal">
        <lane id=":1327_0_0" index="0" speed="13.89" length="14.40" shape="4007.20,3601.60 3992.80,3601.60"/>
    </edge>
    <edge id=":1327_1" function="internal">
        <lane id=":1327_1_0" index="0" speed="8.00" length="5.93" shape="4007.20,3601.60 4003.35,3601.05 4001.60,3600.00"/>
    </edge>
    <edge id=":1327_6" function="internal">
        <lane id=":1327_6_0" index="0" speed="8.00" length="8.26" shape="4001.60,3600.00 4000.60,3599.40 3998.95,3596.65 3998.40,3592.80"/>
    </edge>
    <edge id=":1327_2" function="internal">
        <lane id=":1327_2_0" index="0" speed="6.51" length="9.03" shape="4001.60,3592.80 4001.95,3595.25 4003.00,3597.00 4004.75,3598.05 4007.20,3598.40"/>
    </edge>
    <edge id=":1327_3" function="internal">
        <lane id=":1327_3_0" index="0" speed="8.00" length="14.19" shape="4001.60,3592.80 4001.05,3596.65 3999.40,3599.40 3996.65,3601.05 3992.80,3601.60"/>
    </edge>
    <edge id=":1327_4" function="internal">
        <lane id=":1327_4_0" index="0" speed="6.51" length="9.03" shape="3992.80,3598.40 3995.25,3598.05 3997.00,3597.00 3998.05,3595.25 3998.40,3592.80"/>
    </edge>
    <edge id=":1327_5" function="internal">
        <lane id=":1327_5_0" index="0" speed="13.89" length="14.40" shape="3992.80,3598.40 4007.20,3598.40"/>
    </edge>
    <edge id=":1347_0" function="internal">
        <lane id=":1347_0_0" index="0" speed="6.51" length="9.03" shape="5598.40,3007.20 5598.05,3004.75 5597.00,3003.00 5595.25,3001.95 5592.80,3001.60"/>
    </edge>
    <edge id=":1347_1" function="internal">
        <lane id=":1347_1_0" index="0" speed="13.89" length="19.24" shape="5598.40,3007.20 5598.95,3003.21 5600.59,2999.11 5603.33,2994.90 5607.16,2990.58"/>
    </edge>
    <edge id=":1347_2" function="internal">
        <lane id=":1347_2_0" index="0" speed="8.71" length="4.65" shape="5598.40,3007.20 5599.73,3003.97 5600.62,3003.22"/>
    </edge>
    <edge id=":1347_12" function="internal">
        <lane id=":1347_12_0" index="0" speed="8.71" length="12.37" shape="5600.62,3003.22 5603.07,3001.15 5607.40,2999.16 5611.73,2998.40"/>
    </edge>
    <edge id=":1347_3" function="internal">
        <lane id=":1347_3_0" index="0" speed="7.65" length="12.89" shape="5611.73,3001.60 5607.30,3001.95 5604.13,3003.00 5602.23,3004.75 5601.60,3007.20"/>
    </edge>
    <edge id=":1347_4" function="internal">
        <lane id=":1347_4_0" index="0" speed="13.89" length="18.93" shape="5611.73,3001.60 5592.80,3001.60"/>
    </edge>
    <edge id=":1347_5" function="internal">
        <lane id=":1347_5_0" index="0" speed="7.42" length="7.71" shape="5611.73,3001.60 5605.59,3000.91 5604.36,3000.00"/>
    </edge>
    <edge id=":1347_13" function="internal">
        <lane id=":1347_13_0" index="0" speed="7.42" length="11.60" shape="5604.36,3000.00 5602.79,2998.84 5603.31,2995.40 5607.16,2990.58"/>
    </edge>
    <edge id=":1347_6" function="internal">
        <lane id=":1347_6_0" index="0" speed="5.47" length="9.74" shape="5609.42,2992.84 5607.48,2995.27 5607.22,2997.01 5608.63,2998.05 5611.73,2998.40"/>
    </edge>
    <edge id=":1347_7" function="internal">
        <lane id=":1347_7_0" index="0" speed="13.42" length="16.74" shape="5609.42,2992.84 5606.00,2996.67 5603.56,3000.34 5602.09,3003.85 5601.60,3007.20"/>
    </edge>
    <edge id=":1347_8" function="internal">
        <lane id=":1347_8_0" index="0" speed="13.89" length="7.08" shape="5609.42,2992.84 5605.53,2996.06 5603.79,2997.12"/>
    </edge>
    <edge id=":1347_14" function="internal">
        <lane id=":1347_14_0" index="0" speed="13.89" length="11.98" shape="5603.79,2997.12 5600.94,2998.86 5596.44,3000.85 5592.80,3001.60"/>
    </edge>
    <edge id=":1347_9" function="internal">
        <lane id=":1347_9_0" index="0" speed="13.42" length="16.74" shape="5592.80,2998.40 5596.15,2997.91 5599.66,2996.44 5603.33,2994.00 5607.16,2990.58"/>
    </edge>
    <edge id=":1347_10" function="internal">
        <lane id=":1347_10_0" index="0" speed="13.89" length="18.93" shape="5592.80,2998.40 5611.73,2998.40"/>
    </edge>
    <edge id=":1347_11" function="internal">
        <lane id=":1347_11_0" index="0" speed="8.00" length="5.93" shape="5592.80,2998.40 5596.65,2998.95 5598.40,3000.00"/>
    </edge>
    <edge id=":1347_15" function="internal">
        <lane id=":1347_15_0" index="0" speed="8.00" length="8.26" shape="5598.40,3000.00 5599.40,3000.60 5601.05,3003.35 5601.60,3007.20"/>
    </edge>
    <edge id=":14_0" function="internal">
        <lane id=":14_0_0" index="0" speed="13.89" length="11.68" shape="3203.87,6604.50 3201.08,6602.88 3198.65,6602.01 3196.05,6601.66 3192.80,6601.60"/>
    </edge>
    <edge id=":14_1" function="internal">
        <lane id=":14_1_0" index="0" speed="10.35" length="4.65" shape="3203.87,6604.50 3201.47,6602.40 3200.68,6601.17"/>
    </edge>
    <edge id=":14_6" function="internal">
        <lane id=":14_6_0" index="0" speed="10.35" length="8.81" shape="3200.68,6601.17 3199.77,6599.75 3198.74,6596.55 3198.40,6592.80"/>
    </edge>
    <edge id=":14_2" function="internal">
        <lane id=":14_2_0" index="0" speed="9.11" length="10.31" shape="3201.60,6592.80 3201.85,6595.74 3202.61,6598.23 3203.87,6600.26 3205.64,6601.84"/>
    </edge>
    <edge id=":14_3" function="internal">
        <lane id=":14_3_0" index="0" speed="8.00" length="14.19" shape="3201.60,6592.80 3201.05,6596.65 3199.40,6599.40 3196.65,6601.05 3192.80,6601.60"/>
    </edge>
    <edge id=":14_4" function="internal">
        <lane id=":14_4_0" index="0" speed="6.51" length="9.03" shape="3192.80,6598.40 3195.25,6598.05 3197.00,6597.00 3198.05,6595.25 3198.40,6592.80"/>
    </edge>
    <edge id=":14_5" function="internal">
        <lane id=":14_5_0" index="0" speed="13.89" length="13.51" shape="3192.80,6598.40 3196.33,6598.55 3199.54,6599.08 3202.58,6600.13 3205.64,6601.84"/>
    </edge>
    <edge id=":1591_0" function="internal">
        <lane id=":1591_0_0" index="0" speed="6.51" length="9.03" shape="4598.40,6407.20 4598.05,6404.75 4597.00,6403.00 4595.25,6401.95 4592.80,6401.60"/>
    </edge>
    <edge id=":1591_1" function="internal">
        <lane id=":1591_1_0" index="0" speed="8.00" length="14.19" shape="4598.40,6407.20 4598.95,6403.35 4600.60,6400.60 4603.35,6398.95 4607.20,6398.40"/>
    </edge>
    <edge id=":1591_2" function="internal">
        <lane id=":1591_2_0" index="0" speed="6.51" length="9.03" shape="4607.20,6401.60 4604.75,6401.95 4603.00,6403.00 4601.95,6404.75 4601.60,6407.20"/>
    </edge>
    <edge id=":1591_3" function="internal">
        <lane id=":1591_3_0" index="0" speed="13.89" length="14.40" shape="4607.20,6401.60 4592.80,6401.60"/>
    </edge>
    <edge id=":1591_4" function="internal">
        <lane id=":1591_4_0" index="0" speed="13.89" length="14.40" shape="4592.80,6398.40 4607.20,6398.40"/>
    </edge>
    <edge id=":1591_5" function="internal">
        <lane id=":1591_5_0" index="0" speed="8.00" length="5.93" shape="4592.80,6398.40 4596.65,6398.95 4598.40,6400.00"/>
    </edge>
    <edge id=":1591_6" function="internal">
        <lane id=":1591_6_0" index="0" speed="8.00" length="8.26" shape="4598.40,6400.00 4599.40,6400.60 4601.05,6403.35 4601.60,6407.20"/>
    </edge>
    <edge id=":1598_0" function="internal">
        <lane id=":1598_0_0" index="0" speed="6.57" length="7.51" shape="5599.81,7205.84 5599.07,7203.99 5597.92,7202.66 5596.36,7201.87 5594.38,7201.60"/>
    </edge>
    <edge id=":1598_1" function="internal">
        <lane id=":1598_1_0" index="0" speed="9.23" length="11.28" shape="5599.81,7205.84 5599.38,7202.81 5599.66,7200.06 5600.65,7197.58 5602.36,7195.38"/>
    </edge>
    <edge id=":1598_2" function="internal">
        <lane id=":1598_2_0" index="0" speed="7.84" length="7.98" shape="5604.62,7197.64 5603.45,7199.17 5602.77,7200.92 5602.59,7202.89 5602.92,7205.07"/>
    </edge>
    <edge id=":1598_3" function="internal">
        <lane id=":1598_3_0" index="0" speed="11.08" length="11.27" shape="5604.62,7197.64 5602.50,7199.37 5600.08,7200.61 5597.38,7201.35 5594.38,7201.60"/>
    </edge>
    <edge id=":1598_4" function="internal">
        <lane id=":1598_4_0" index="0" speed="9.82" length="8.75" shape="5594.38,7198.40 5596.74,7198.21 5598.85,7197.64 5600.73,7196.70 5602.36,7195.38"/>
    </edge>
    <edge id=":1598_5" function="internal">
        <lane id=":1598_5_0" index="0" speed="8.08" length="4.35" shape="5594.38,7198.40 5597.49,7198.82 5598.57,7199.37"/>
    </edge>
    <edge id=":1598_6" function="internal">
        <lane id=":1598_6_0" index="0" speed="8.08" length="7.44" shape="5598.57,7199.37 5599.95,7200.07 5601.76,7202.15 5602.92,7205.07"/>
    </edge>
    <edge id=":1618_0" function="internal">
        <lane id=":1618_0_0" index="0" speed="13.89" length="14.40" shape="4207.20,5401.60 4192.80,5401.60"/>
    </edge>
    <edge id=":1618_1" function="internal">
        <lane id=":1618_1_0" index="0" speed="8.00" length="5.93" shape="4207.20,5401.60 4203.35,5401.05 4201.60,5400.00"/>
    </edge>
    <edge id=":1618_6" function="internal">
        <lane id=":1618_6_0" index="0" speed="8.00" length="8.26" shape="4201.60,5400.00 4200.60,5399.40 4198.95,5396.65 4198.40,5392.80"/>
    </edge>
    <edge id=":1618_2" function="internal">
        <lane id=":1618_2_0" index="0" speed="6.51" length="9.03" shape="4201.60,5392.80 4201.95,5395.25 4203.00,5397.00 4204.75,5398.05 4207.20,5398.40"/>
    </edge>
    <edge id=":1618_3" function="internal">
        <lane id=":1618_3_0" index="0" speed="8.00" length="14.19" shape="4201.60,5392.80 4201.05,5396.65 4199.40,5399.40 4196.65,5401.05 4192.80,5401.60"/>
    </edge>
    <edge id=":1618_4" function="internal">
        <lane id=":1618_4_0" index="0" speed="6.51" length="9.03" shape="4192.80,5398.40 4195.25,5398.05 4197.00,5397.00 4198.05,5395.25 4198.40,5392.80"/>
    </edge>
    <edge id=":1618_5" function="internal">
        <lane id=":1618_5_0" index="0" speed="13.89" length="14.40" shape="4192.80,5398.40 4207.20,5398.40"/>
    </edge>
    <edge id=":1645_0" function="internal">
        <lane id=":1645_0_0" index="0" speed="12.73" length="15.02" shape="4405.33,6401.60 4402.80,6402.09 4399.87,6403.56 4396.55,6406.00 4392.84,6409.42"/>
    </edge>
    <edge id=":1645_1" function="internal">
        <lane id=":1645_1_0" index="0" speed="13.89" length="17.05" shape="4405.33,6401.60 4388.27,6401.60"/>
    </edge>
    <edge id=":1645_2" function="internal">
        <lane id=":1645_2_0" index="0" speed="13.89" length="17.05" shape="4388.27,6398.40 4405.33,6398.40"/>
    </edge>
    <edge id=":1645_3" function="internal">
        <lane id=":1645_3_0" index="0" speed="7.42" length="7.71" shape="4388.27,6398.40 4394.41,6399.09 4395.64,6400.00"/>
    </edge>
    <edge id=":1645_6" function="internal">
        <lane id=":1645_6_0" index="0" speed="7.42" length="11.60" shape="4395.64,6400.00 4397.21,6401.16 4396.69,6404.60 4392.84,6409.42"/>
    </edge>
    <edge id=":1645_4" function="internal">
        <lane id=":1645_4_0" index="0" speed="5.47" length="9.74" shape="4390.58,6407.16 4392.52,6404.73 4392.78,6402.99 4391.37,6401.95 4388.27,6401.60"/>
    </edge>
    <edge id=":1645_5" function="internal">
        <lane id=":1645_5_0" index="0" speed="13.73" length="17.52" shape="4390.58,6407.16 4394.78,6403.33 4398.64,6400.59 4402.16,6398.95 4405.33,6398.40"/>
    </edge>
    <edge id=":1691_0" function="internal">
        <lane id=":1691_0_0" index="0" speed="3.90" length="2.58" shape="4798.40,6403.20 4798.30,6402.50 4798.00,6402.00 4797.50,6401.70 4796.80,6401.60"/>
    </edge>
    <edge id=":1691_1" function="internal">
        <lane id=":1691_1_0" index="0" speed="6.08" length="7.74" shape="4796.80,6398.40 4798.90,6398.70 4800.40,6399.60 4801.30,6401.10 4801.60,6403.20"/>
    </edge>
    <edge id=":1812_0" function="internal">
        <lane id=":1812_0_0" index="0" speed="9.73" length="21.49" shape="4011.73,5401.60 4005.90,5400.77 4001.73,5398.27 3999.23,5394.10 3998.40,5388.27"/>
    </edge>
    <edge id=":1812_1" function="internal">
        <lane id=":1812_1_0" index="0" speed="7.42" length="11.43" shape="4011.73,5401.60 4005.59,5400.91 4002.79,5398.84 4003.06,5397.09"/>
    </edge>
    <edge id=":1812_6" function="internal">
        <lane id=":1812_6_0" index="0" speed="7.42" length="7.88" shape="4003.06,5397.09 4003.31,5395.40 4007.16,5390.58"/>
    </edge>
    <edge id=":1812_2" function="internal">
        <lane id=":1812_2_0" index="0" speed="5.47" length="9.74" shape="4009.42,5392.84 4007.48,5395.27 4007.22,5397.01 4008.63,5398.05 4011.73,5398.40"/>
    </edge>
    <edge id=":1812_3" function="internal">
        <lane id=":1812_3_0" index="0" speed="7.42" length="19.31" shape="4009.42,5392.84 4004.60,5396.69 4001.16,5397.21 3999.09,5394.41 3998.40,5388.27"/>
    </edge>
    <edge id=":1812_4" function="internal">
        <lane id=":1812_4_0" index="0" speed="5.47" length="9.74" shape="4001.60,5388.27 4001.95,5391.37 4002.99,5392.78 4004.73,5392.52 4007.16,5390.58"/>
    </edge>
    <edge id=":1812_5" function="internal">
        <lane id=":1812_5_0" index="0" speed="8.54" length="16.33" shape="4001.60,5388.27 4002.23,5392.70 4004.13,5395.87 4007.30,5397.77 4011.73,5398.40"/>
    </edge>
    <edge id=":1844_0" function="internal">
        <lane id=":1844_0_0" index="0" speed="5.47" length="9.74" shape="4198.40,5211.73 4198.05,5208.63 4197.01,5207.22 4195.27,5207.48 4192.84,5209.42"/>
    </edge>
    <edge id=":1844_1" function="internal">
        <lane id=":1844_1_0" index="0" speed="13.42" length="16.74" shape="4198.40,5211.73 4198.11,5206.60 4197.24,5202.27 4195.80,5198.75 4193.78,5196.04"/>
    </edge>
    <edge id=":1844_2" function="internal">