<configuration> 

<input> 
<net-file value="delisi.net.xml"/> 
<route-files value="delisi.rou.xml"/> 
</input> 

<time> 
<begin value="0"/> 
<end value="2000"/> 
</time> 

</configuration>
