<?xml version="1.0" encoding="UTF-8"?>

<!-- generated on 2021-06-02 16:44:25 by Eclipse SUMO netconvert Version 1.9.2
<configuration xmlns:xsi="http://www.w3.org/2001/XMLSchema-instance" xsi:noNamespaceSchemaLocation="http://sumo.dlr.de/xsd/netconvertConfiguration.xsd">

    <input>
        <osm-files value="delisi_map.osm"/>
    </input>

    <output>
        <output-file value="delisi.net.xml"/>
    </output>

    <projection>
        <proj.utm value="true"/>
    </projection>

    <report>
        <aggregate-warnings value="5"/>
    </report>

</configuration>
-->

<net version="1.9" junctionCornerDetail="5" limitTurnSpeed="5.50" xmlns:xsi="http://www.w3.org/2001/XMLSchema-instance" xsi:noNamespaceSchemaLocation="http://sumo.dlr.de/xsd/net_file.xsd">

    <location netOffset="-476482.82,-4617477.08" convBoundary="0.00,0.00,6544.19,2611.03" origBoundary="44.717260,41.708861,44.795940,41.732300" projParameter="+proj=utm +zone=38 +ellps=WGS84 +datum=WGS84 +units=m +no_defs"/>

    <type id="highway.bridleway" priority="1" numLanes="1" speed="2.78" allow="pedestrian" oneway="1" width="2.00"/>
    <type id="highway.bus_guideway" priority="1" numLanes="1" speed="27.78" allow="bus" oneway="1"/>
    <type id="highway.cycleway" priority="1" numLanes="1" speed="8.33" allow="bicycle" oneway="0" width="1.00"/>
    <type id="highway.footway" priority="1" numLanes="1" speed="2.78" allow="pedestrian" oneway="1" width="2.00"/>
    <type id="highway.ford" priority="1" numLanes="1" speed="2.78" allow="army" oneway="0"/>
    <type id="highway.living_street" priority="2" numLanes="1" speed="2.78" disallow="tram rail_urban rail rail_electric rail_fast ship" oneway="0"/>
    <type id="highway.motorway" priority="14" numLanes="2" speed="39.44" allow="private emergency authority army vip passenger hov taxi bus coach delivery truck trailer motorcycle evehicle custom1 custom2" oneway="1"/>
    <type id="highway.motorway_link" priority="9" numLanes="1" speed="22.22" allow="private emergency authority army vip passenger hov taxi bus coach delivery truck trailer motorcycle evehicle custom1 custom2" oneway="1"/>
    <type id="highway.path" priority="1" numLanes="1" speed="2.78" allow="pedestrian bicycle" oneway="0" width="2.00"/>
    <type id="highway.pedestrian" priority="1" numLanes="1" speed="2.78" allow="pedestrian" oneway="1" width="2.00"/>
    <type id="highway.primary" priority="12" numLanes="2" speed="27.78" disallow="tram rail_urban rail rail_electric rail_fast ship" oneway="0"/>
    <type id="highway.primary_link" priority="7" numLanes="1" speed="22.22" disallow="tram rail_urban rail rail_electric rail_fast ship" oneway="0"/>
    <type id="highway.raceway" priority="15" numLanes="2" speed="83.33" allow="vip" oneway="0"/>
    <type id="highway.residential" priority="3" numLanes="1" speed="13.89" disallow="tram rail_urban rail rail_electric rail_fast ship" oneway="0"/>
    <type id="highway.secondary" priority="11" numLanes="1" speed="27.78" disallow="tram rail_urban rail rail_electric rail_fast ship" oneway="0"/>
    <type id="highway.secondary_link" priority="6" numLanes="1" speed="22.22" disallow="tram rail_urban rail rail_electric rail_fast ship" oneway="0"/>
    <type id="highway.service" priority="1" numLanes="1" speed="5.56" allow="pedestrian delivery bicycle" oneway="0"/>
    <type id="highway.stairs" priority="1" numLanes="1" speed="1.39" allow="pedestrian" oneway="1" width="2.00"/>
    <type id="highway.step" priority="1" numLanes="1" speed="1.39" allow="pedestrian" oneway="1" width="2.00"/>
    <type id="highway.steps" priority="1" numLanes="1" speed="1.39" allow="pedestrian" oneway="1" width="2.00"/>
    <type id="highway.tertiary" priority="10" numLanes="1" speed="22.22" disallow="tram rail_urban rail rail_electric rail_fast ship" oneway="0"/>
    <type id="highway.tertiary_link" priority="5" numLanes="1" speed="22.22" disallow="tram rail_urban rail rail_electric rail_fast ship" oneway="0"/>
    <type id="highway.track" priority="1" numLanes="1" speed="5.56" allow="pedestrian motorcycle moped bicycle" oneway="0"/>
    <type id="highway.trunk" priority="13" numLanes="2" speed="27.78" disallow="pedestrian bicycle tram rail_urban rail rail_electric rail_fast ship" oneway="0"/>
    <type id="highway.trunk_link" priority="8" numLanes="1" speed="22.22" disallow="pedestrian bicycle tram rail_urban rail rail_electric rail_fast ship" oneway="0"/>
    <type id="highway.unclassified" priority="4" numLanes="1" speed="13.89" disallow="tram rail_urban rail rail_electric rail_fast ship" oneway="0"/>
    <type id="highway.unsurfaced" priority="1" numLanes="1" speed="8.33" disallow="tram rail_urban rail rail_electric rail_fast ship" oneway="0"/>
    <type id="railway.highspeed" priority="21" numLanes="1" speed="69.44" allow="rail_fast" oneway="1"/>
    <type id="railway.light_rail" priority="19" numLanes="1" speed="27.78" allow="rail_urban" oneway="1"/>
    <type id="railway.preserved" priority="16" numLanes="1" speed="27.78" allow="rail" oneway="1"/>
    <type id="railway.rail" priority="20" numLanes="1" speed="44.44" allow="rail" oneway="1"/>
    <type id="railway.subway" priority="18" numLanes="1" speed="27.78" allow="rail_urban" oneway="1"/>
    <type id="railway.tram" priority="17" numLanes="1" speed="13.89" allow="tram" oneway="1"/>

    <edge id=":1016403296_0" function="internal">
        <lane id=":1016403296_0_0" index="0" allow="pedestrian delivery bicycle" speed="5.56" length="9.36" shape="2255.61,1782.13 2246.35,1780.74"/>
    </edge>
    <edge id=":1016403296_1" function="internal">
        <lane id=":1016403296_1_0" index="0" allow="pedestrian delivery bicycle" speed="5.56" length="10.15" shape="2255.61,1782.13 2253.01,1781.32 2251.26,1779.85 2250.35,1777.71 2250.29,1774.89"/>
    </edge>
    <edge id=":1016403296_2" function="internal">
        <lane id=":1016403296_2_0" index="0" allow="pedestrian delivery bicycle" speed="3.65" length="4.67" shape="2255.61,1782.13 2254.55,1781.15 2254.27,1780.30 2254.79,1779.57 2256.10,1778.97"/>
    </edge>
    <edge id=":1016403296_3" function="internal">
        <lane id=":1016403296_3_0" index="0" allow="pedestrian delivery bicycle" speed="5.16" length="5.14" shape="2253.47,1775.26 2253.49,1776.71 2253.94,1777.81 2254.81,1778.56 2256.10,1778.97"/>
    </edge>
    <edge id=":1016403296_4" function="internal">
        <lane id=":1016403296_4_0" index="0" allow="pedestrian delivery bicycle" speed="5.56" length="10.32" shape="2253.47,1775.26 2252.75,1778.00 2251.32,1779.83 2249.19,1780.74 2246.35,1780.74"/>
    </edge>
    <edge id=":1016403296_5" function="internal">
        <lane id=":1016403296_5_0" index="0" allow="pedestrian delivery bicycle" speed="3.65" length="4.67" shape="2253.47,1775.26 2252.54,1776.36 2251.70,1776.67 2250.95,1776.18 2250.29,1774.89"/>
    </edge>
    <edge id=":1016403296_6" function="internal">
        <lane id=":1016403296_6_0" index="0" allow="pedestrian delivery bicycle" speed="5.01" length="5.04" shape="2246.81,1777.57 2248.20,1777.57 2249.24,1777.13 2249.94,1776.24 2250.29,1774.89"/>
    </edge>
    <edge id=":1016403296_7" function="internal">
        <lane id=":1016403296_7_0" index="0" allow="pedestrian delivery bicycle" speed="5.56" length="9.39" shape="2246.81,1777.57 2256.10,1778.97"/>
    </edge>
    <edge id=":1016403296_8" function="internal">
        <lane id=":1016403296_8_0" index="0" allow="pedestrian delivery bicycle" speed="3.65" length="4.67" shape="2246.81,1777.57 2247.89,1778.53 2248.17,1779.38 2247.65,1780.12 2246.35,1780.74"/>
    </edge>
    <edge id=":1016403301_0" function="internal">
        <lane id=":1016403301_0_0" index="0" disallow="tram rail_urban rail rail_electric rail_fast ship" speed="13.89" length="7.99" shape="2256.87,1690.50 2264.81,1691.48"/>
        <lane id=":1016403301_0_1" index="1" disallow="tram rail_urban rail rail_electric rail_fast ship" speed="13.89" length="7.99" shape="2256.48,1693.67 2264.41,1694.65"/>
        <lane id=":1016403301_0_2" index="2" disallow="tram rail_urban rail rail_electric rail_fast ship" speed="13.89" length="7.99" shape="2256.09,1696.85 2264.02,1697.83"/>
        <lane id=":1016403301_0_3" index="3" disallow="tram rail_urban rail rail_electric rail_fast ship" speed="13.89" length="7.99" shape="2255.70,1700.02 2263.63,1701.00"/>
    </edge>
    <edge id=":1016403301_4" function="internal">
        <lane id=":1016403301_4_0" index="0" allow="pedestrian delivery bicycle" speed="5.98" length="7.31" shape="2255.70,1700.02 2258.40,1700.51 2260.30,1701.20 2261.39,1702.09 2261.68,1703.19"/>
    </edge>
    <edge id=":1016403301_5" function="internal">
        <lane id=":1016403301_5_0" index="0" allow="pedestrian delivery bicycle" speed="6.31" length="8.58" shape="2258.49,1702.88 2259.05,1700.44 2260.15,1698.78 2261.81,1697.91 2264.02,1697.83"/>
        <lane id=":1016403301_5_1" index="1" allow="pedestrian delivery bicycle" speed="5.43" length="6.08" shape="2258.49,1702.88 2258.90,1701.83 2259.90,1701.17 2261.47,1700.89 2263.63,1701.00"/>
    </edge>
    <edge id=":1016403301_7" function="internal">
        <lane id=":1016403301_7_0" index="0" allow="pedestrian delivery bicycle" speed="3.65" length="4.67" shape="2258.49,1702.88 2259.40,1701.76 2260.24,1701.44 2261.00,1701.92 2261.68,1703.19"/>
    </edge>
    <edge id=":1016430948_0" function="internal">
        <lane id=":1016430948_0_0" index="0" disallow="tram rail_urban rail rail_electric rail_fast ship" speed="13.89" length="9.43" shape="2166.57,1871.54 2165.36,1880.90"/>
    </edge>
    <edge id=":1016430948_1" function="internal">
        <lane id=":1016430948_1_0" index="0" allow="pedestrian delivery bicycle" speed="6.87" length="5.08" shape="2166.57,1871.54 2165.83,1874.22 2164.41,1876.03"/>
    </edge>
    <edge id=":1016430948_2" function="internal">
        <lane id=":1016430948_2_0" index="0" disallow="tram rail_urban rail rail_electric rail_fast ship" speed="3.65" length="2.34" shape="2166.57,1871.54 2165.62,1872.63 2164.78,1872.93"/>
    </edge>
    <edge id=":1016430948_9" function="internal">
        <lane id=":1016430948_9_0" index="0" allow="pedestrian delivery bicycle" speed="6.87" length="5.10" shape="2164.41,1876.03 2162.30,1876.96 2159.50,1877.01"/>
    </edge>
    <edge id=":1016430948_10" function="internal">
        <lane id=":1016430948_10_0" index="0" disallow="tram rail_urban rail rail_electric rail_fast ship" speed="3.65" length="2.34" shape="2164.78,1872.93 2164.03,1872.43 2163.39,1871.14"/>
    </edge>
    <edge id=":1016430948_3" function="internal">
        <lane id=":1016430948_3_0" index="0" allow="pedestrian delivery bicycle" speed="5.06" length="5.03" shape="2159.89,1873.83 2161.28,1873.81 2162.32,1873.35 2163.03,1872.46 2163.39,1871.14"/>
    </edge>
    <edge id=":1016430948_4" function="internal">
        <lane id=":1016430948_4_0" index="0" allow="pedestrian delivery bicycle" speed="6.85" length="10.21" shape="2159.89,1873.83 2162.60,1874.56 2164.41,1875.99 2165.33,1878.10 2165.36,1880.90"/>
    </edge>
    <edge id=":1016430948_5" function="internal">
        <lane id=":1016430948_5_0" index="0" allow="pedestrian delivery bicycle" speed="3.65" length="4.67" shape="2159.89,1873.83 2160.99,1874.77 2161.29,1875.62 2160.79,1876.36 2159.50,1877.01"/>
    </edge>
    <edge id=":1016430948_6" function="internal">
        <lane id=":1016430948_6_0" index="0" allow="pedestrian delivery bicycle" speed="5.03" length="5.01" shape="2162.19,1880.48 2162.17,1879.10 2161.72,1878.07 2160.83,1877.37 2159.50,1877.01"/>
    </edge>
    <edge id=":1016430948_7" function="internal">
        <lane id=":1016430948_7_0" index="0" disallow="tram rail_urban rail rail_electric rail_fast ship" speed="13.89" length="9.41" shape="2162.19,1880.48 2163.39,1871.14"/>
    </edge>
    <edge id=":1016430948_8" function="internal">
        <lane id=":1016430948_8_0" index="0" disallow="tram rail_urban rail rail_electric rail_fast ship" speed="3.65" length="2.34" shape="2162.19,1880.48 2163.14,1879.39 2163.99,1879.10"/>
    </edge>
    <edge id=":1016430948_11" function="internal">
        <lane id=":1016430948_11_0" index="0" disallow="tram rail_urban rail rail_electric rail_fast ship" speed="3.65" length="2.34" shape="2163.99,1879.10 2164.73,1879.60 2165.36,1880.90"/>
    </edge>
    <edge id=":1016430965_0" function="internal">
        <lane id=":1016430965_0_0" index="0" allow="pedestrian delivery bicycle" speed="3.65" length="4.67" shape="2060.80,1864.95 2059.70,1864.01 2059.40,1863.17 2059.90,1862.42 2061.18,1861.77"/>
    </edge>
    <edge id=":1049244251_0" function="internal">
        <lane id=":1049244251_0_0" index="0" disallow="tram rail_urban rail rail_electric rail_fast ship" speed="13.89" length="4.12" shape="2170.42,1841.06 2169.87,1845.14"/>
    </edge>
    <edge id=":1049244251_1" function="internal">
        <lane id=":1049244251_1_0" index="0" disallow="tram rail_urban rail rail_electric rail_fast ship" speed="3.65" length="2.34" shape="2170.42,1841.06 2169.45,1842.13 2168.60,1842.40"/>
    </edge>
    <edge id=":1049244251_4" function="internal">
        <lane id=":1049244251_4_0" index="0" disallow="tram rail_urban rail rail_electric rail_fast ship" speed="3.65" length="2.34" shape="2168.60,1842.40 2167.87,1841.89 2167.26,1840.58"/>
    </edge>
    <edge id=":1049244251_2" function="internal">
        <lane id=":1049244251_2_0" index="0" disallow="tram rail_urban rail rail_electric rail_fast ship" speed="13.89" length="4.20" shape="2166.69,1844.74 2167.26,1840.58"/>
    </edge>
    <edge id=":1049244251_3" function="internal">
        <lane id=":1049244251_3_0" index="0" disallow="tram rail_urban rail rail_electric rail_fast ship" speed="3.65" length="2.34" shape="2166.69,1844.74 2167.64,1843.65 2168.48,1843.35"/>
    </edge>
    <edge id=":1049244251_5" function="internal">
        <lane id=":1049244251_5_0" index="0" disallow="tram rail_urban rail rail_electric rail_fast ship" speed="3.65" length="2.34" shape="2168.48,1843.35 2169.22,1843.85 2169.87,1845.14"/>
    </edge>
    <edge id=":1100649337_0" function="internal">
        <lane id=":1100649337_0_0" index="0" allow="pedestrian delivery bicycle" speed="5.03" length="5.02" shape="2516.42,2102.38 2515.05,2102.40 2514.01,2102.86 2513.32,2103.75 2512.97,2105.08"/>
    </edge>
    <edge id=":1100649337_1" function="internal">
        <lane id=":1100649337_1_0" index="0" disallow="tram rail_urban rail rail_electric rail_fast ship" speed="13.89" length="9.42" shape="2516.42,2102.38 2507.08,2101.21"/>
    </edge>
    <edge id=":1100649337_2" function="internal">
        <lane id=":1100649337_2_0" index="0" disallow="tram rail_urban rail rail_electric rail_fast ship" speed="3.65" length="2.34" shape="2516.42,2102.38 2515.34,2101.44 2515.05,2100.59"/>
    </edge>
    <edge id=":1100649337_9" function="internal">
        <lane id=":1100649337_9_0" index="0" disallow="tram rail_urban rail rail_electric rail_fast ship" speed="3.65" length="2.34" shape="2515.05,2100.59 2515.55,2099.85 2516.84,2099.21"/>
    </edge>
    <edge id=":1100649337_3" function="internal">
        <lane id=":1100649337_3_0" index="0" disallow="tram rail_urban rail rail_electric rail_fast ship" speed="13.89" length="9.45" shape="2507.47,2098.03 2516.84,2099.21"/>
    </edge>
    <edge id=":1100649337_4" function="internal">
        <lane id=":1100649337_4_0" index="0" allow="pedestrian delivery bicycle" speed="6.88" length="5.08" shape="2507.47,2098.03 2510.15,2098.76 2511.96,2100.17"/>
    </edge>
    <edge id=":1100649337_5" function="internal">
        <lane id=":1100649337_5_0" index="0" disallow="tram rail_urban rail rail_electric rail_fast ship" speed="3.65" length="2.34" shape="2507.47,2098.03 2508.56,2098.97 2508.86,2099.81"/>
    </edge>
    <edge id=":1100649337_10" function="internal">
        <lane id=":1100649337_10_0" index="0" allow="pedestrian delivery bicycle" speed="6.88" length="5.11" shape="2511.96,2100.17 2512.90,2102.28 2512.97,2105.08"/>
    </edge>
    <edge id=":1100649337_11" function="internal">
        <lane id=":1100649337_11_0" index="0" disallow="tram rail_urban rail rail_electric rail_fast ship" speed="3.65" length="2.34" shape="2508.86,2099.81 2508.37,2100.56 2507.08,2101.21"/>
    </edge>
    <edge id=":1100649337_6" function="internal">
        <lane id=":1100649337_6_0" index="0" allow="pedestrian delivery bicycle" speed="5.07" length="5.04" shape="2509.79,2104.71 2509.76,2103.32 2509.29,2102.27 2508.40,2101.57 2507.08,2101.21"/>
    </edge>
    <edge id=":1100649337_7" function="internal">
        <lane id=":1100649337_7_0" index="0" allow="pedestrian delivery bicycle" speed="6.85" length="10.23" shape="2509.79,2104.71 2510.51,2102.00 2511.92,2100.17 2514.03,2099.25 2516.84,2099.21"/>
    </edge>
    <edge id=":1100649337_8" function="internal">
        <lane id=":1100649337_8_0" index="0" allow="pedestrian delivery bicycle" speed="3.65" length="4.67" shape="2509.79,2104.71 2510.72,2103.61 2511.56,2103.31 2512.31,2103.80 2512.97,2105.08"/>
    </edge>
    <edge id=":1100649344_0" function="internal">
        <lane id=":1100649344_0_0" index="0" allow="pedestrian delivery bicycle" speed="5.04" length="4.99" shape="2598.71,2113.10 2597.34,2113.13 2596.31,2113.59 2595.62,2114.48 2595.26,2115.80"/>
    </edge>
    <edge id=":1100649344_1" function="internal">
        <lane id=":1100649344_1_0" index="0" disallow="tram rail_urban rail rail_electric rail_fast ship" speed="13.89" length="9.38" shape="2598.71,2113.10 2589.40,2111.93"/>
    </edge>
    <edge id=":1100649344_2" function="internal">
        <lane id=":1100649344_2_0" index="0" disallow="tram rail_urban rail rail_electric rail_fast ship" speed="3.65" length="2.34" shape="2598.71,2113.10 2597.61,2112.16 2597.31,2111.32"/>
    </edge>
    <edge id=":1100649344_9" function="internal">
        <lane id=":1100649344_9_0" index="0" disallow="tram rail_urban rail rail_electric rail_fast ship" speed="3.65" length="2.34" shape="2597.31,2111.32 2597.80,2110.57 2599.09,2109.92"/>
    </edge>
    <edge id=":1100649344_3" function="internal">
        <lane id=":1100649344_3_0" index="0" disallow="tram rail_urban rail rail_electric rail_fast ship" speed="13.89" length="9.34" shape="2589.82,2108.76 2599.09,2109.92"/>
    </edge>
    <edge id=":1100649344_4" function="internal">
        <lane id=":1100649344_4_0" index="0" allow="pedestrian delivery bicycle" speed="6.87" length="5.06" shape="2589.82,2108.76 2592.49,2109.51 2594.28,2110.93"/>
    </edge>
    <edge id=":1100649344_5" function="internal">
        <lane id=":1100649344_5_0" index="0" disallow="tram rail_urban rail rail_electric rail_fast ship" speed="3.65" length="2.34" shape="2589.82,2108.76 2590.90,2109.71 2591.20,2110.56"/>
    </edge>
    <edge id=":1100649344_10" function="internal">
        <lane id=":1100649344_10_0" index="0" allow="pedestrian delivery bicycle" speed="6.87" length="5.07" shape="2594.28,2110.93 2595.21,2113.03 2595.26,2115.80"/>
    </edge>
    <edge id=":1100649344_11" function="internal">
        <lane id=":1100649344_11_0" index="0" disallow="tram rail_urban rail rail_electric rail_fast ship" speed="3.65" length="2.34" shape="2591.20,2110.56 2590.70,2111.30 2589.40,2111.93"/>
    </edge>
    <edge id=":1100649344_6" function="internal">
        <lane id=":1100649344_6_0" index="0" allow="pedestrian delivery bicycle" speed="5.05" length="5.00" shape="2592.09,2115.41 2592.06,2114.04 2591.60,2113.00 2590.72,2112.30 2589.40,2111.93"/>
    </edge>
    <edge id=":1100649344_7" function="internal">
        <lane id=":1100649344_7_0" index="0" allow="pedestrian delivery bicycle" speed="6.87" length="10.14" shape="2592.09,2115.41 2592.81,2112.73 2594.22,2110.92 2596.31,2109.98 2599.09,2109.92"/>
    </edge>
    <edge id=":1100649344_8" function="internal">
        <lane id=":1100649344_8_0" index="0" allow="pedestrian delivery bicycle" speed="3.65" length="4.67" shape="2592.09,2115.41 2593.03,2114.32 2593.87,2114.02 2594.61,2114.51 2595.26,2115.80"/>
    </edge>
    <edge id=":1100649387_0" function="internal">
        <lane id=":1100649387_0_0" index="0" allow="pedestrian delivery bicycle" speed="5.56" length="9.40" shape="2512.33,2136.82 2503.01,2135.62"/>
    </edge>
    <edge id=":1100649387_1" function="internal">
        <lane id=":1100649387_1_0" index="0" allow="pedestrian delivery bicycle" speed="5.56" length="10.16" shape="2512.33,2136.82 2509.67,2136.08 2507.88,2134.65 2506.94,2132.54 2506.88,2129.74"/>
    </edge>
    <edge id=":1100649387_2" function="internal">
        <lane id=":1100649387_2_0" index="0" allow="pedestrian delivery bicycle" speed="3.65" length="4.67" shape="2512.33,2136.82 2511.25,2135.87 2510.95,2135.03 2511.45,2134.28 2512.74,2133.65"/>
    </edge>
    <edge id=":1100649387_3" function="internal">
        <lane id=":1100649387_3_0" index="0" allow="pedestrian delivery bicycle" speed="5.08" length="5.05" shape="2510.06,2130.11 2510.09,2131.51 2510.55,2132.56 2511.43,2133.28 2512.74,2133.65"/>
    </edge>
    <edge id=":1100649387_4" function="internal">
        <lane id=":1100649387_4_0" index="0" allow="pedestrian delivery bicycle" speed="5.56" length="10.22" shape="2510.06,2130.11 2509.34,2132.82 2507.93,2134.65 2505.82,2135.58 2503.01,2135.62"/>
    </edge>
    <edge id=":1100649387_5" function="internal">
        <lane id=":1100649387_5_0" index="0" allow="pedestrian delivery bicycle" speed="3.65" length="4.67" shape="2510.06,2130.11 2509.12,2131.21 2508.28,2131.52 2507.53,2131.03 2506.88,2129.74"/>
    </edge>
    <edge id=":1100649387_6" function="internal">
        <lane id=":1100649387_6_0" index="0" allow="pedestrian delivery bicycle" speed="5.03" length="5.01" shape="2503.42,2132.44 2504.80,2132.42 2505.83,2131.97 2506.53,2131.07 2506.88,2129.74"/>
    </edge>
    <edge id=":1100649387_7" function="internal">
        <lane id=":1100649387_7_0" index="0" allow="pedestrian delivery bicycle" speed="5.56" length="9.40" shape="2503.42,2132.44 2512.74,2133.65"/>
    </edge>
    <edge id=":1100649387_8" function="internal">
        <lane id=":1100649387_8_0" index="0" allow="pedestrian delivery bicycle" speed="3.65" length="4.67" shape="2503.42,2132.44 2504.51,2133.39 2504.81,2134.23 2504.31,2134.98 2503.01,2135.62"/>
    </edge>
    <edge id=":1100649418_0" function="internal">
        <lane id=":1100649418_0_0" index="0" allow="pedestrian delivery bicycle" speed="3.65" length="4.67" shape="2654.68,2152.04 2655.77,2152.98 2656.06,2153.83 2655.57,2154.57 2654.27,2155.21"/>
    </edge>
    <edge id=":1100649422_0" function="internal">
        <lane id=":1100649422_0_0" index="0" allow="pedestrian delivery bicycle" speed="3.65" length="4.67" shape="2499.62,2135.18 2498.53,2134.23 2498.24,2133.39 2498.74,2132.65 2500.03,2132.00"/>
    </edge>
    <edge id=":1111542704_0" function="internal">
        <lane id=":1111542704_0_0" index="0" disallow="tram rail_urban rail rail_electric rail_fast ship" speed="8.72" length="14.14" shape="2354.87,1610.19 2350.71,1608.67 2347.85,1606.39 2346.30,1603.36 2346.06,1599.57"/>
        <lane id=":1111542704_0_1" index="1" disallow="tram rail_urban rail rail_electric rail_fast ship" speed="8.08" length="14.14" shape="2354.87,1610.19 2352.09,1608.97 2350.22,1606.85 2349.27,1603.82 2349.25,1599.88"/>
    </edge>
    <edge id=":1111542704_2" function="internal">
        <lane id=":1111542704_2_0" index="0" disallow="tram rail_urban rail rail_electric rail_fast ship" speed="13.89" length="9.62" shape="2341.79,1608.77 2342.88,1599.25"/>
        <lane id=":1111542704_2_1" index="1" disallow="tram rail_urban rail rail_electric rail_fast ship" speed="13.89" length="9.62" shape="2344.97,1609.12 2346.06,1599.57"/>
        <lane id=":1111542704_2_2" index="2" disallow="tram rail_urban rail rail_electric rail_fast ship" speed="13.89" length="9.62" shape="2348.15,1609.47 2349.25,1599.88"/>
    </edge>
    <edge id=":1192165456_0" function="internal">
        <lane id=":1192165456_0_0" index="0" allow="pedestrian delivery bicycle" speed="5.56" length="9.40" shape="2594.46,2147.46 2585.14,2146.25"/>
    </edge>
    <edge id=":1192165456_1" function="internal">
        <lane id=":1192165456_1_0" index="0" allow="pedestrian delivery bicycle" speed="5.56" length="10.16" shape="2594.46,2147.46 2591.79,2146.72 2589.99,2145.29 2589.06,2143.18 2589.01,2140.39"/>
    </edge>
    <edge id=":1192165456_2" function="internal">
        <lane id=":1192165456_2_0" index="0" allow="pedestrian delivery bicycle" speed="3.65" length="4.67" shape="2594.46,2147.46 2593.37,2146.51 2593.08,2145.67 2593.58,2144.93 2594.87,2144.29"/>
    </edge>
    <edge id=":1192165456_3" function="internal">
        <lane id=":1192165456_3_0" index="0" allow="pedestrian delivery bicycle" speed="5.06" length="5.02" shape="2592.19,2140.78 2592.21,2142.17 2592.67,2143.21 2593.55,2143.92 2594.87,2144.29"/>
    </edge>
    <edge id=":1192165456_4" function="internal">
        <lane id=":1192165456_4_0" index="0" allow="pedestrian delivery bicycle" speed="5.56" length="10.19" shape="2592.19,2140.78 2591.46,2143.48 2590.04,2145.29 2587.93,2146.22 2585.14,2146.25"/>
    </edge>
    <edge id=":1192165456_5" function="internal">
        <lane id=":1192165456_5_0" index="0" allow="pedestrian delivery bicycle" speed="3.65" length="4.67" shape="2592.19,2140.78 2591.25,2141.88 2590.40,2142.18 2589.66,2141.68 2589.01,2140.39"/>
    </edge>
    <edge id=":1192165456_6" function="internal">
        <lane id=":1192165456_6_0" index="0" allow="pedestrian delivery bicycle" speed="5.03" length="5.01" shape="2585.55,2143.08 2586.92,2143.06 2587.95,2142.61 2588.65,2141.72 2589.01,2140.39"/>
    </edge>
    <edge id=":1192165456_7" function="internal">
        <lane id=":1192165456_7_0" index="0" allow="pedestrian delivery bicycle" speed="5.56" length="9.40" shape="2585.55,2143.08 2594.87,2144.29"/>
    </edge>
    <edge id=":1192165456_8" function="internal">
        <lane id=":1192165456_8_0" index="0" allow="pedestrian delivery bicycle" speed="3.65" length="4.67" shape="2585.55,2143.08 2586.63,2144.03 2586.93,2144.87 2586.43,2145.61 2585.14,2146.25"/>
    </edge>
    <edge id=":1211569860_0" function="internal">
        <lane id=":1211569860_0_0" index="0" allow="pedestrian delivery bicycle" speed="3.65" length="4.67" shape="2035.84,1855.76 2036.90,1856.73 2037.18,1857.59 2036.66,1858.32 2035.35,1858.92"/>
    </edge>
    <edge id=":1211569861_0" function="internal">
        <lane id=":1211569861_0_0" index="0" allow="pedestrian delivery bicycle" speed="5.56" length="5.12" shape="1977.90,1817.10 1977.14,1822.17"/>
    </edge>
    <edge id=":1211569861_1" function="internal">
        <lane id=":1211569861_1_0" index="0" allow="pedestrian delivery bicycle" speed="3.65" length="2.34" shape="1977.90,1817.10 1976.92,1818.16 1976.07,1818.43"/>
    </edge>
    <edge id=":1211569861_4" function="internal">
        <lane id=":1211569861_4_0" index="0" allow="pedestrian delivery bicycle" speed="3.65" length="2.34" shape="1976.07,1818.43 1975.34,1817.91 1974.74,1816.60"/>
    </edge>
    <edge id=":1211569861_2" function="internal">
        <lane id=":1211569861_2_0" index="0" allow="pedestrian delivery bicycle" speed="5.56" length="5.18" shape="1973.97,1821.72 1974.74,1816.60"/>
    </edge>
    <edge id=":1211569861_3" function="internal">
        <lane id=":1211569861_3_0" index="0" allow="pedestrian delivery bicycle" speed="3.65" length="2.34" shape="1973.97,1821.72 1974.93,1820.64 1975.78,1820.36"/>
    </edge>
    <edge id=":1211569861_5" function="internal">
        <lane id=":1211569861_5_0" index="0" allow="pedestrian delivery bicycle" speed="3.65" length="2.34" shape="1975.78,1820.36 1976.52,1820.87 1977.14,1822.17"/>
    </edge>
    <edge id=":1211569866_0" function="internal">
        <lane id=":1211569866_0_0" index="0" allow="pedestrian delivery bicycle" speed="3.65" length="4.67" shape="1852.48,1834.68 1851.39,1833.74 1851.08,1832.90 1851.58,1832.15 1852.86,1831.50"/>
    </edge>
    <edge id=":1211569876_0" function="internal">
        <lane id=":1211569876_0_0" index="0" allow="pedestrian delivery bicycle" speed="5.13" length="5.10" shape="1981.70,1812.61 1980.34,1812.64 1979.30,1813.12 1978.58,1814.04 1978.17,1815.41"/>
    </edge>
    <edge id=":1211569876_1" function="internal">
        <lane id=":1211569876_1_0" index="0" disallow="tram rail_urban rail rail_electric rail_fast ship" speed="16.67" length="9.29" shape="1981.70,1812.61 1972.40,1811.38"/>
        <lane id=":1211569876_1_1" index="1" disallow="tram rail_urban rail rail_electric rail_fast ship" speed="16.67" length="9.29" shape="1982.09,1809.43 1972.83,1808.21"/>
        <lane id=":1211569876_1_2" index="2" disallow="tram rail_urban rail rail_electric rail_fast ship" speed="16.67" length="9.29" shape="1982.49,1806.26 1973.27,1805.04"/>
        <lane id=":1211569876_1_3" index="3" disallow="tram rail_urban rail rail_electric rail_fast ship" speed="16.67" length="9.29" shape="1982.88,1803.08 1973.71,1801.88"/>
        <lane id=":1211569876_1_4" index="4" disallow="tram rail_urban rail rail_electric rail_fast ship" speed="16.67" length="9.29" shape="1983.28,1799.91 1974.15,1798.71"/>
    </edge>
    <edge id=":1211569876_6" function="internal">
        <lane id=":1211569876_6_0" index="0" allow="pedestrian delivery bicycle" speed="5.02" length="5.02" shape="1975.01,1814.91 1975.03,1813.53 1974.60,1812.48 1973.72,1811.77 1972.40,1811.38"/>
        <lane id=":1211569876_6_1" index="1" allow="pedestrian delivery bicycle" speed="6.06" length="7.81" shape="1975.01,1814.91 1975.24,1812.14 1974.96,1810.11 1974.16,1808.80 1972.83,1808.21"/>
    </edge>
    <edge id=":1211569876_8" function="internal">
        <lane id=":1211569876_8_0" index="0" allow="pedestrian delivery bicycle" speed="3.65" length="4.67" shape="1975.01,1814.91 1975.99,1813.85 1976.84,1813.58 1977.57,1814.10 1978.17,1815.41"/>
    </edge>
    <edge id=":1211569878_0" function="internal">