<?xml version="1.0" encoding="UTF-8"?>

<!-- generated on 2021-07-15 23:37:37 by Eclipse SUMO duarouter Version 1.9.2
<configuration xmlns:xsi="http://www.w3.org/2001/XMLSchema-instance" xsi:noNamespaceSchemaLocation="http://sumo.dlr.de/xsd/duarouterConfiguration.xsd">

    <input>
        <net-file value="medium_rand//u_map.net.xml"/>
        <route-files value="trips.trips.xml"/>
    </input>

    <output>
        <output-file value="medium_rand//training/route_2000_05_16.rou.xml"/>
        <alternatives-output value="medium_rand//training/route_2000_05_16.rou.alt.xml"/>
    </output>

    <time>
        <begin value="0"/>
        <end value="2000"/>
    </time>

    <report>
        <no-warnings value="true"/>
        <ignore-errors value="true"/>
        <no-step-log value="true"/>
    </report>

</configuration>
-->

<routes xmlns:xsi="http://www.w3.org/2001/XMLSchema-instance" xsi:noNamespaceSchemaLocation="http://sumo.dlr.de/xsd/routes_file.xsd">
    <vehicle id="0" depart="0.00">
        <route edges="-5497 2880 -1370 -1316 -1262 1266 1855 2120 2183 -2942 -2868 1157 -1025 1027 1160 1171"/>
    </vehicle>
    <vehicle id="1" depart="0.50">
        <route edges="1076 1037 636 816 866 1036 1094 1635 1837 2247 -2213 -2152 -5001"/>
    </vehicle>
    <vehicle id="2" depart="1.00">
        <route edges="-813 1075 1299 -1309 1635 1835 2096 2872 -5002 -4738"/>
    </vehicle>
    <vehicle id="3" depart="1.50">
        <route edges="293 323 404 411 2233 2405 2859 2928 3108 3318 3750"/>
    </vehicle>
    <vehicle id="5" depart="2.50">
        <route edges="237 5493 5824 -5519 1112 1181 1259 -1119"/>
    </vehicle>
    <vehicle id="6" depart="3.00">
        <route edges="1117 -1112 1108 -1106 -1039 636 816 864"/>
    </vehicle>
    <vehicle id="7" depart="3.50">
        <route edges="15 380 -397 -5 3 27 34 133 219 239 641 1112 1181"/>
    </vehicle>
    <vehicle id="8" depart="4.00">
        <route edges="-3902 -3600 -2998 -2919 404 411 -5001 -4738 3440"/>
    </vehicle>
    <vehicle id="11" depart="5.50">
        <route edges="-5512 -4378 -2261 2183 -2942 -2868 -1084 1076 1037 636 816 866 1036 1094 1635 1835 2096 3131 4738 5001 2233 2405 2859 2928 4624"/>
    </vehicle>
    <vehicle id="12" depart="6.00">
        <route edges="-4624 3108 3308 -2934 2928 4624 5002 -2872 -2096 -1835 -1635 -1094 1093 -1075 813 816 882"/>
    </vehicle>
    <vehicle id="13" depart="6.50">
        <route edges="2213 -2247 -1837 1835 2096 3131 4738 5001 2233 2405 2859 2926 -2996"/>
    </vehicle>
    <vehicle id="15" depart="7.50">
        <route edges="-75 -73 265 665 -821 894 -2648"/>
    </vehicle>
    <vehicle id="16" depart="8.00">
        <route edges="2395 2757 -1152 -380 -15 3 27 34 70 476 813 816 882 1037"/>
    </vehicle>
    <vehicle id="18" depart="9.00">
        <route edges="-2403 2405 2857 -2769 -429 -362 -153 -23 -11 3 27 34 133 219 239 641 1112 1187 1262"/>
    </vehicle>
    <vehicle id="20" depart="10.00">
        <route edges="5268 5652 -270 -226 2395 2757 -1152 -380 -15 11 23 100"/>
    </vehicle>
    <vehicle id="21" depart="10.50">
        <route edges="-1304 -1253 -1025 1021 1076 1037 -387 383 219 239 641 1112 1187 1262 -1261"/>
    </vehicle>
    <vehicle id="22" depart="11.00">
        <route edges="-1181 -1112 1108 -1106 -1039 636 816 866 1036 1094 1635 1835 2096 3131 4738 -4624 3108 3326 -3440"/>
    </vehicle>
    <vehicle id="23" depart="11.50">
        <route edges="-1027 1021 1076 1037 -387 383 -133 -34 44 73 75 397 1152 2779"/>
    </vehicle>
    <vehicle id="24" depart="12.00">
        <route edges="2942 -2183 -2120 -1855 -1266 -1187 -1112 5519 -5824 -5493 341 383 -133 70 464 -395 252 -230 293 323 2919 2998 -1416"/>
    </vehicle>
    <vehicle id="25" depart="12.50">
        <route edges="249 391 586 646 821 -665 -265 73 75 -5 11 23 153 362 411 2233 2405 2859 2928 3108 3318 3750"/>
    </vehicle>
    <vehicle id="26" depart="13.00">
        <route edges="-237 239 641 1108 -1106 -1039 636 816 864 1021"/>
    </vehicle>
    <vehicle id="27" depart="13.50">
        <route edges="-237 -219 -133 70 476 1075 1299 -1309 1635 1835 2096 3131 4738 5001"/>
    </vehicle>
    <vehicle id="29" depart="14.50">
        <route edges="3903 -668 670 -1416 -1344 311 -293 -153 -23 -11 3 27 34 133 219 239 641 1112 1187 1266 1855 2120 2261 4378 5512 5846"/>
    </vehicle>
    <vehicle id="30" depart="15.00">
        <route edges="-2183 -2120 -1855 -1266 -1187 -1112 1108 -1106 -1039 636 816 864 1021 1084 1157 -1025"/>
    </vehicle>
    <vehicle id="31" depart="15.50">
        <route edges="1845 -1843 -1635 -1094 1093"/>
    </vehicle>
    <vehicle id="32" depart="16.00">
        <route edges="-5512 -4378 -2261 2183 -2942 -2868 -1084 1076 1037 636 816 866 1036 1094 1635 1835 2096 3131 4738 -4624 -2928"/>
    </vehicle>
    <vehicle id="33" depart="16.50">
        <route edges="-64 27 34 70 476 813 816 866 1028"/>
    </vehicle>
    <vehicle id="34" depart="17.00">
        <route edges="2999 -3902 3903 -668 -619 1583 3292 4125"/>
    </vehicle>
    <vehicle id="35" depart="17.50">
        <route edges="1119 -1259 -1181 -1112 -641 -239 249 391 586 646 821 -665 -265 73 75 -5 11 23 100 199 226 270"/>
    </vehicle>
    <vehicle id="36" depart="18.00">
        <route edges="2798 2880 -1370 -1316 -1261 -1181 -1112 1108 -1106 -1039 636 816 866 1032 1092 -1160"/>
    </vehicle>
    <vehicle id="37" depart="18.50">
        <route edges="1112 1187 1266 1855 2120 2183 -2942 -2868 -1084 1080"/>
    </vehicle>
    <vehicle id="38" depart="19.00">
        <route edges="-237 239 641 1108 -1106 -1039 636 816 866 1032 1092 -1160"/>
    </vehicle>
    <vehicle id="39" depart="19.50">
        <route edges="15 380 -397 -5 3 27 34 133 219 249 614 -639 -239 -219"/>
    </vehicle>
    <vehicle id="40" depart="20.00">
        <route edges="639 -614 391 586 646 821 -665 -265 73 75 -5 11 23 153 293 -311 -283"/>
    </vehicle>
    <vehicle id="41" depart="20.50">
        <route edges="-1259 -1181 -1112 1108 -1106 -1039 636 816 866 1036 1094 1635 1835 2096 3131 4738 5001 2152 2213"/>
    </vehicle>
    <vehicle id="42" depart="21.00">
        <route edges="-1090 1092 1177 3142 5810"/>
    </vehicle>
    <vehicle id="43" depart="21.50">
        <route edges="-15 11 23 100 199 1414 1416 3600 3903 4077"/>
    </vehicle>
    <vehicle id="44" depart="22.00">
        <route edges="1090 1309 -1299 -1075 -476 -70 133 219 239 641 1112 1187 1266 1855 2110 5507"/>
    </vehicle>
    <vehicle id="45" depart="22.50">
        <route edges="-70 -34 44 73 75 -5 11 23 100 199 226 268 619"/>
    </vehicle>
    <vehicle id="46" depart="23.00">
        <route edges="-1036 1032 1090 1635 1835 2096 3131 4738 5001 2233 2403 -429 -404 2919 2999 -2839"/>
    </vehicle>
    <vehicle id="47" depart="23.50">
        <route edges="64 75 -5 11 23 153 362 411 2152 2213 -2247 -1837 -1635"/>
    </vehicle>
    <vehicle id="48" depart="24.00">
        <route edges="-2233 2152 2213 -2247 -1837 -1635 -1094 1093 -1075 813 816 882"/>
    </vehicle>
    <vehicle id="49" depart="24.50">
        <route edges="4046 5409 -5810 -3142 1845 -1843 1835 2096 3131 4738 5001"/>
    </vehicle>
    <vehicle id="50" depart="25.00">
        <route edges="-1193 -1121 1117 -1112 1108 -1106 -1039 636 816 866"/>
    </vehicle>
    <vehicle id="51" depart="25.50">
        <route edges="-230 362 411 2233 2405 2859 2928 3108 3318 3750"/>
    </vehicle>
    <vehicle id="52" depart="26.00">
        <route edges="1148 -1152 -380 -15 3 27 34 70 476 813 816 866 1032 1092 1177 4046 5409 -5810"/>
    </vehicle>
    <vehicle id="53" depart="26.50">
        <route edges="1370 -2880 -2798 -1368 -1316 -1262 1266 1855 2120 2183 -2942 -2868 1157 -1025 1027 1160"/>
    </vehicle>
    <vehicle id="54" depart="27.00">
        <route edges="91 707 1148 -1152 -397 -75 -64 -3"/>
    </vehicle>
    <vehicle id="55" depart="27.50">
        <route edges="-2942 -2868 -1084 1076 1037 -387 383 -133 -34 44 73 75 -5 15 380 -397"/>
    </vehicle>
    <vehicle id="56" depart="28.00">
        <route edges="1157 -1025 1021 1076 1037 -387 383 219 239 639 649"/>
    </vehicle>
    <vehicle id="57" depart="28.50">
        <route edges="-1344 -283 199 2395"/>
    </vehicle>
    <vehicle id="58" depart="29.00">
        <route edges="283 311 -293 -153 -23 -11 3 27 34 133 219 239 641 1112 1181 1261 1316 1370 -2880 -2798 -1368"/>
    </vehicle>
    <vehicle id="59" depart="29.50">
        <route edges="-5512 -4378 -2261 2183 -2942 -2868 -1084 1076 1037 -387 383 -133 70 464 -395 252 -230 293 323 2919 2999"/>
    </vehicle>
    <vehicle id="60" depart="30.00">
        <route edges="5001 2233 2403 -429 -362 -153 -23 -11 3 27"/>
    </vehicle>
    <vehicle id="61" depart="30.50">
        <route edges="-5505 -1372 -1316 -1261 1259 -1119 -1047 -649 -614 391 586 646 821 -665 -265 73 75 -5 11 23 153 293 323 2147"/>
    </vehicle>
    <vehicle id="62" depart="31.00">
        <route edges="2395 2757 -1152 -380 -15 11 23 100 283"/>
    </vehicle>
    <vehicle id="63" depart="31.50">
        <route edges="649 1047 1117 1187 1262"/>
    </vehicle>
    <vehicle id="65" depart="32.50">
        <route edges="3308 -2934 2928 4624 5002 -2872 -2096 2166"/>
    </vehicle>
    <vehicle id="66" depart="33.00">
        <route edges="-341 885 -1039 636 816 864 1027 1160 -1092"/>
    </vehicle>
    <vehicle id="67" depart="33.50">
        <route edges="2648 -894 821 -665 -265 -44 34 133 219 239"/>
    </vehicle>
    <vehicle id="69" depart="34.50">
        <route edges="1037 1039 -885 341 387 -1037 -882"/>
    </vehicle>
    <vehicle id="70" depart="35.00">
        <route edges="-38 44 73"/>
    </vehicle>
    <vehicle id="71" depart="35.50">
        <route edges="-44 38 252 -230 362 411 -5001"/>
    </vehicle>
    <vehicle id="73" depart="36.50">
        <route edges="-1076 -1021 1027 -1028 1036 1093 -1075 -476 464 -395 252 287 -364 -335 23 100 199 2395 2757"/>
    </vehicle>
    <vehicle id="74" depart="37.00">
        <route edges="-44 -27 -3 11 23 100 283 311"/>
    </vehicle>
    <vehicle id="75" depart="37.50">
        <route edges="-1028 1036 1093 -1075 -476 -70 133 219 249 614 -639"/>
    </vehicle>
    <vehicle id="78" depart="39.00">
        <route edges="1108 -1106 -1039 636 816 864 1027"/>
    </vehicle>
    <vehicle id="79" depart="39.50">
        <route edges="2152 2213 -2247 -1837 -1635 -1090"/>
    </vehicle>
    <vehicle id="80" depart="40.00">
        <route edges="133 219 237 341 387 636 816 864 1025 -1157"/>
    </vehicle>
    <vehicle id="81" depart="40.50">
        <route edges="-199 -100 -23 -11 15 380 -397"/>
    </vehicle>
    <vehicle id="83" depart="41.50">
        <route edges="1036 1093 -1075 -476 -70 133 219 239 641 1112 1187 1262"/>
    </vehicle>
    <vehicle id="84" depart="42.00">
        <route edges="-1299 -1093 1094 1635 1835 2096 3131 4738 5001 2233 2405 2857 -2769"/>
    </vehicle>
    <vehicle id="85" depart="42.50">
        <route edges="-226 -199 -100 -23 335 364 1589 1670"/>
    </vehicle>
    <vehicle id="86" depart="43.00">
        <route edges="5519 -5824 -5493 341 383 -133 -34 44 73 75 397 1152 -2757 -2395"/>
    </vehicle>
    <vehicle id="87" depart="43.50">
        <route edges="-237 239 641 1108 -1106 -1039 636 816 864 1025 1253"/>
    </vehicle>
    <vehicle id="88" depart="44.00">
        <route edges="75 -5 3 27 34 133 219 239 641 5519 -5824"/>
    </vehicle>
    <vehicle id="89" depart="44.50">
        <route edges="391 586 646 821 -665 -265 73 75 -5 11 335"/>
    </vehicle>
    <vehicle id="90" depart="45.00">
        <route edges="2868 2942 -2183 2261 4378 5512"/>
    </vehicle>
    <vehicle id="91" depart="45.50">
        <route edges="-2926 -2859 2857 -2835 2839 -3902 -3600 -2998"/>
    </vehicle>
    <vehicle id="92" depart="46.00">
        <route edges="-1160 -1027 1021 1084 2515"/>
    </vehicle>
    <vehicle id="93" depart="46.50">
        <route edges="-1028 1036 1094 1635 1835 2096 3131 4738 5001 2233 2405 2859 2928"/>
    </vehicle>
    <vehicle id="94" depart="47.00">
        <route edges="1037 -387 383 -133 70 464 -395 252 287 -364 -335 91 707"/>
    </vehicle>
    <vehicle id="95" depart="47.50">
        <route edges="-5835 -5505 -1372 -1316 -1261 1259 -1119 -1047 -649 -614 391 586 646 821 -665 -265 73 75 -5 11 23 100 199 1414 1416 3600 3903 4077 4396"/>
    </vehicle>
    <vehicle id="96" depart="48.00">
        <route edges="-5512 -4378 -2261 2183 -2942 -2868 -1084 1076 1037 636 816 866 1036"/>
    </vehicle>
    <vehicle id="97" depart="48.50">
        <route edges="1181 1259 -1119 1117 -1112 1108 -1106 -1039 636 816 866 1032 1092 1177 3142 5810 -5409 -4046"/>
    </vehicle>
    <vehicle id="98" depart="49.00">
        <route edges="100 199 2395 2757 -1152 -380 -15 3 27 44 265 665 -821 894 -2648 -2281"/>
    </vehicle>
    <vehicle id="99" depart="49.50">
        <route edges="-1589 -364 -335 -11 3 27 34 133 219 239 639 659 -1193"/>
    </vehicle>
    <vehicle id="100" depart="50.00">
        <route edges="1108 -1106 -1039 636 816 866 1032 1092 1177 3142"/>
    </vehicle>
    <vehicle id="101" depart="50.50">
        <route edges="-1177 -1092 1090 1309 -1328 -395 252 287 -364 -335 23 100 199 226 272 3909"/>
    </vehicle>
    <vehicle id="102" depart="51.00">
        <route edges="1117 -1112 1108 -1106 -1039 636 816 866 1036 1094 1635 1835 2096 3131 4738 5002 -2872"/>
    </vehicle>
    <vehicle id="105" depart="52.50">
        <route edges="4046 5409 -5810 -3142 -1177 -1092 1090 1309 -1328 -395 252 287 -364 -335 -11 3"/>
    </vehicle>
    <vehicle id="106" depart="53.00">
        <route edges="2996 -2926 2928 3108 3308"/>
    </vehicle>
    <vehicle id="107" depart="53.50">
        <route edges="-383 387 636 -813 -476 464 -395 252 287 -364 -335 23 100 199 226 272"/>
    </vehicle>
    <vehicle id="108" depart="54.00">
        <route edges="-5507 -2110 2120 2183 -2942 -2868 -1084 1076 1037 636 816 866 1036 1094 1635 1835 2096 3131 4738 5001 2233 2405 2859 2934"/>
    </vehicle>
    <vehicle id="109" depart="54.50">
        <route edges="1036 1094 1635 1835 2096 3131 4738 5001 2233 2403 -429 -404 2919 2998 3600 3902"/>
    </vehicle>
    <vehicle id="110" depart="55.00">
        <route edges="-404 -323 -293 -153 -23 -11 3 27 44 265 665 -821 -646 -586"/>
    </vehicle>
    <vehicle id="111" depart="55.50">
        <route edges="-226 -199 283 311 -293 230 287"/>
    </vehicle>
    <vehicle id="112" depart="56.00">
        <route edges="-2859 2857 -2769 -429 -404 2919 2999 -2839"/>
    </vehicle>
    <vehicle id="113" depart="56.50">
        <route edges="-1193 -1121 -1047 -649 -614 391 586 646 821 -665 -265 73 75 397 1152 -2757 -2395 -199"/>
    </vehicle>
    <vehicle id="114" depart="57.00">
        <route edges="1119 -1259 -1181 -1112 1108 -1106 -1039 636 816 864"/>
    </vehicle>
    <vehicle id="115" depart="57.50">
        <route edges="2999 -3902 -3600 -1416 -1414 2395 5268 5656"/>
    </vehicle>
    <vehicle id="116" depart="58.00">
        <route edges="-882 864 1021 1076"/>
    </vehicle>
    <vehicle id="117" depart="58.50">
        <route edges="15 380 -397 -5 3 27 38 395 1328 -1309 1635 1837 2247 -2213 -2152"/>
    </vehicle>
    <vehicle id="118" depart="59.00">
        <route edges="-2926 -2859 2857 -2769 -429 -362 -153 -23 91 707 1148 -1152 -380 -15"/>
    </vehicle>
    <vehicle id="119" depart="59.50">
        <route edges="-2857 -2405 2403 -429 -362 -153 -23 -11 3 27 34 133 219 239 639 649 1047 1121 5165 5529"/>
    </vehicle>
    <vehicle id="120" depart="60.00">
        <route edges="5001 2152 2213 -2247 -1837 -1635 -1090"/>
    </vehicle>
    <vehicle id="122" depart="61.00">
        <route edges="70 464 -395 252 287 -364 -335 23 100 199 2395 5268 5652 -270"/>
    </vehicle>
    <vehicle id="123" depart="61.50">
        <route edges="3440 -3326 -3108 4624 5002 -2872 -2096 -1835 1837 2247 -2213 -2152"/>
    </vehicle>
    <vehicle id="124" depart="62.00">
        <route edges="1837 2247 -2213 -2152 2233 2403 -429 -362 230 -252 395 -464 476 813 816 866 1032 1090"/>
    </vehicle>
    <vehicle id="125" depart="62.50">
        <route edges="-4889 -2830 -2395 1414 -1344 -283"/>
    </vehicle>
    <vehicle id="126" depart="63.00">
        <route edges="230 -252 395 1328 -1309 -1090 1092 1177 4046 5409 -5810"/>
    </vehicle>
    <vehicle id="129" depart="64.50">
        <route edges="-4624 3108 3308 -2934 -2859 2857 -2769 -429 -404 2919 2998 -1416 -1414 -199"/>
    </vehicle>
    <vehicle id="130" depart="65.00">
        <route edges="283 1344 1416 -2998 -2919"/>
    </vehicle>
    <vehicle id="131" depart="65.50">
        <route edges="2096 3131 4738 5001 2233 2403 -429 -362 -153 -23 -11 3 64 75"/>
    </vehicle>
    <vehicle id="132" depart="66.00">
        <route edges="-237 239 639 659"/>
    </vehicle>
    <vehicle id="133" depart="66.50">
        <route edges="391 586 646 821 -665 -265 73 75 -5 11 23 100 199 226 268 3907 -3909"/>
    </vehicle>
    <vehicle id="134" depart="67.00">
        <route edges="-5178 -4396 -4077 -668 670 -1416 -1344 311 -293 -153 -23 -11 3 27 34 133 219 239 641 1112 1187 1266 1855 2120 2261 4378 5512 5846"/>
    </vehicle>
    <vehicle id="135" depart="67.50">
        <route edges="-1716 -1589 -287 -252 395 1328 -1309 1635 1837 2247"/>
    </vehicle>
    <vehicle id="136" depart="68.00">
        <route edges="-4624 3108 3308 -2934 2928 4624 5002 -2872 -2096 -1835 -1635 -1094 1093 -1075 813 816 864 1021 1084 2515"/>
    </vehicle>
    <vehicle id="137" depart="68.50">
        <route edges="-2999 -2919 2147 2853"/>
    </vehicle>
    <vehicle id="138" depart="69.00">
        <route edges="-2798 -1368 -1316 -1262 -1187"/>
    </vehicle>
    <vehicle id="139" depart="69.50">
        <route edges="1157 -1025 1027 1160 1177 1845 -1843 1835 2096 2872 5034"/>
    </vehicle>
    <vehicle id="140" depart="70.00">
        <route edges="-3 5 -75 -64 27 34 133 219 239 641 1112 1187 1266 1855 2112"/>
    </vehicle>
    <vehicle id="141" depart="70.50">
        <route edges="-5215 -4125 -3292 -1583 619 670 -2998 -2919 404 411 -5001 -4738 -3131"/>
    </vehicle>
    <vehicle id="142" depart="71.00">
        <route edges="-1090 1092 1177 1845 -1843 1837 2247 -2213 -2152 -5001"/>
    </vehicle>
    <vehicle id="143" depart="71.50">
        <route edges="-4229 -3907 619 670 -1416 -1344 311 -293 230 -252 395 -464 -70"/>
    </vehicle>
    <vehicle id="144" depart="72.00">
        <route edges="-1316 -1262 1266 1855 2120 2183 -2942 -2868 -1084 1076 1037"/>
    </vehicle>
    <vehicle id="145" depart="72.50">
        <route edges="-1635 1309 -1328 -395 252 287 -364 -335 -11 5"/>
    </vehicle>
    <vehicle id="146" depart="73.00">
        <route edges="-2110 2120 2183 -2942 -2868 -1084 1076 1037 -387 383 -133 -34 44 73 -64 27"/>
    </vehicle>
    <vehicle id="147" depart="73.50">
        <route edges="-2403 2405 2857 -2769 -429 -362 -153 -23 -11 3 27"/>
    </vehicle>
    <vehicle id="148" depart="74.00">
        <route edges="1193 -659 -614 -249 237 341 387 636 816 866 1036 1094 1635 1835 2096 2872 -5002"/>
    </vehicle>
    <vehicle id="149" depart="74.50">
        <route edges="-1028 1036 1093 -1075 -476 -70 133 219 239 639 659 5173"/>
    </vehicle>
    <vehicle id="150" depart="75.00">
        <route edges="-5507 -2110 2120 2183 -2942 -2868 -1084 1076 1037 -387 383 -133 70 464"/>
    </vehicle>
    <vehicle id="151" depart="75.50">
        <route edges="-5507 -2110 2120 2183 -2942 -2868 -1084 1076 1037 -387 383 -133 70 464 -395 252 287 -364 -335 23 100 199 226 270"/>
    </vehicle>
    <vehicle id="152" depart="76.00">
        <route edges="2999 -2839 2835 -2769 -429 -362 293"/>
    </vehicle>
    <vehicle id="153" depart="76.50">
        <route edges="1261 -1262 -1187 -1112 5519 -5824 -5493 341 383 -133 70 464 1328"/>
    </vehicle>
    <vehicle id="154" depart="77.00">
        <route edges="-2152 2233 2403 -429 -362 -153 -23 -11 3 64 75"/>
    </vehicle>
    <vehicle id="155" depart="77.50">
        <route edges="-3131 2872 -5002 5001 2233 2403 -429 -404 2919 2998 -1416 -1414"/>
    </vehicle>
    <vehicle id="156" depart="78.00">
        <route edges="-239 249 391 586 646 821 -665 -265 73 75 397 1152 -1148 -707 -91"/>
    </vehicle>
    <vehicle id="157" depart="78.50">
        <route edges="-2998 -2919 404 -362 -153 -23 -11 3 27 34 133 219 239 641 1112 1187 1262 -1261"/>
    </vehicle>
    <vehicle id="158" depart="79.00">
        <route edges="1112 -1117 -1047 -649 -614 391 586 646 821 -665 -265 73 75 397 1152 -1148 -707 -91"/>
    </vehicle>
    <vehicle id="159" depart="79.50">
        <route edges="-2942 -2868 -1084 1076 1037 636 816 866 1036 1094 1635 1835 2096 2872"/>
    </vehicle>
    <vehicle id="160" depart="80.00">
        <route edges="-219 -133 70 464 -395 252 -230 362 411"/>
    </vehicle>
    <vehicle id="161" depart="80.50">
        <route edges="15 380 1152 -2757 5268 5652 -270 268 619 668 4083"/>
    </vehicle>
    <vehicle id="162" depart="81.00">
        <route edges="1117 1187"/>
    </vehicle>
    <vehicle id="163" depart="81.50">
        <route edges="864 1027 1160 1177 1845 -1843 1835 2096 3131 4738 5001 2233 2403 -429 -404 2919 2998 -670 668 -3903"/>
    </vehicle>
    <vehicle id="164" depart="82.00">
        <route edges="-1328 -464 476 1075 1299 -1309 1635 1835 2096 3131 4738 -4624"/>
    </vehicle>
    <vehicle id="165" depart="82.50">
        <route edges="5810 -5409 -4046 1845 -1843 1835 2096 3131 4738 5001 2233 2405 2857 -2835 2853 2996 -2926"/>
    </vehicle>
    <vehicle id="166" depart="83.00">
        <route edges="2281 2648 -894 821 -665 -265 -44 38 395 1328 -1309 1635 1835 2096 3131 4738 5002 -2872 -2096"/>
    </vehicle>
    <vehicle id="167" depart="83.50">
        <route edges="-2147 404 -362 -153 -23 -11 3 27 34 133 219 239 641 1112 1181 1261 -1262"/>
    </vehicle>
    <vehicle id="169" depart="84.50">
        <route edges="5001 2152 2213 -2247 -1837 -1635 -1094 1093 -1075 813 816 864 1025 1253"/>
    </vehicle>
    <vehicle id="170" depart="85.00">
        <route edges="-3308 -3108 4624 5002 -2872 -2096 2166"/>
    </vehicle>
    <vehicle id="171" depart="85.50">
        <route edges="1845 -1843 -1635 -1094 1093 -1075 -476 -70 133 219 239 641 1112 1181 1259"/>
    </vehicle>
    <vehicle id="172" depart="86.00">
        <route edges="272"/>
    </vehicle>
    <vehicle id="173" depart="86.50">
        <route edges="-5507 -2110 -1855 -1266 1262 -1261 -1181 1187"/>
    </vehicle>
    <vehicle id="174" depart="87.00">
        <route edges="2942 -2183 -2120 -1855 -1266 -1187 -1112 1108 -1106 -1039 636 816 866 1036 1094 1635 1835 2096 3131 4738 5001 2233 2405 2859 2928"/>
    </vehicle>
    <vehicle id="175" depart="87.50">
        <route edges="-4396 -4077 -668 -619 -268 272"/>
    </vehicle>
    <vehicle id="176" depart="88.00">
        <route edges="-1262 -1187 1181 1261 1316 1368 2798 5497"/>
    </vehicle>
    <vehicle id="177" depart="88.50">
        <route edges="5 -75 -64 27 34 70 476 1075 -1093 1094 1309"/>
    </vehicle>
    <vehicle id="178" depart="89.00">
        <route edges="2999 -2839 2835 -2769 -429 -362 -153 -23 -11 3 27 34 133 219 239 641 1112 1187 1266 1855 2120 2261 4378 5512 5846"/>
    </vehicle>
    <vehicle id="179" depart="89.50">
        <route edges="3 27 34 70 476 813 816 864"/>
    </vehicle>
    <vehicle id="180" depart="90.00">
        <route edges="864 1027 1160 1177 1845 -1843 1835 2096 3131 4738 5001 2233 2403 -429 -404 2919 2998 3600"/>
    </vehicle>
    <vehicle id="181" depart="90.50">
        <route edges="5215 -5542 -4107 -3292 -1583 619 670 3600 3902 -2839 -2147"/>
    </vehicle>
    <vehicle id="182" depart="91.00">
        <route edges="-1181 -1112 1108 -1106 -1039 636 816 866 1036 1094 1635 1835 2096 3131 3440 -3326 3318"/>
    </vehicle>
    <vehicle id="183" depart="91.50">
        <route edges="-2999 -2919 404 -362 -153 -23 -11 3 27 34 133 219 249 391"/>
    </vehicle>
    <vehicle id="184" depart="92.00">
        <route edges="-411 -362 230 -252 395 1328 -1309 1635"/>
    </vehicle>
    <vehicle id="185" depart="92.50">
        <route edges="-1084 1076 1037 -387 383 -133 70 464 -395 -38"/>
    </vehicle>
    <vehicle id="186" depart="93.00">
        <route edges="-5844 -5512 -4378 -2261 2183 -2942 -2868 1157 -1025 1027 1160 1177 4046 5409"/>
    </vehicle>
    <vehicle id="188" depart="94.00">
        <route edges="-239 237 341 387 636 816 864 1021 1084 2515 5285"/>
    </vehicle>
    <vehicle id="189" depart="94.50">
        <route edges="5001 2233 2405 2859 2928 3108 3326 -3440"/>
    </vehicle>
    <vehicle id="190" depart="95.00">
        <route edges="-100 -23 -11 3 27 34 70 476 813 816 866 1032 1092 1171"/>
    </vehicle>
    <vehicle id="191" depart="95.50">
        <route edges="614 -639 641 1108 -1106 -1039 636 816 864 1021 1084 2868 2942 -2183 -2120"/>
    </vehicle>
    <vehicle id="192" depart="96.00">
        <route edges="-1092 1090 1635 1835 2096 3131 4738 5001 2233 2403 -429 -404 -323 -293"/>
    </vehicle>
    <vehicle id="193" depart="96.50">
        <route edges="-287 -230 -153 100 199 226 272"/>
    </vehicle>
    <vehicle id="194" depart="97.00">
        <route edges="464 -395 -38 34 133 219 249 614 -639 -239"/>
    </vehicle>
    <vehicle id="195" depart="97.50">
        <route edges="-3902 3903 -668 -619 1583 3292 4107 5542 -5215 -4125 -3292 -1583 619"/>
    </vehicle>
    <vehicle id="196" depart="98.00">
        <route edges="-1148 -707 -91 -11 3 64 75"/>
    </vehicle>
    <vehicle id="197" depart="98.50">
        <route edges="-1021 1027 -1028 1036 1093 -1075 -476 464 -395 252 -230 293 323 404"/>
    </vehicle>
    <vehicle id="198" depart="99.00">
        <route edges="-237 249 391 586 646 821 -665 -265 73 75 -5 11 335 364 -287"/>
    </vehicle>
    <vehicle id="199" depart="99.50">
        <route edges="5497 5826 -4750 -1370 -1316 -1261 1259 -1119 -1047 -649 -614 391 586 646 821 -665 -265 73 75 397 1152 2779 4250"/>
    </vehicle>
    <vehicle id="200" depart="100.00">
        <route edges="-619 -268 270 -5652 -5268 2757 -1152 -380 -15 3 27 34 70 476 813 816 866 1028 -1027 -864"/>
    </vehicle>
    <vehicle id="201" depart="100.50">
        <route edges="133 219 237 341 387 636 -813 1075 -1093"/>
    </vehicle>
    <vehicle id="202" depart="101.00">
        <route edges="821 -665 -265 73 75 -5 11 23 153 293 323 404 -362"/>
    </vehicle>
    <vehicle id="203" depart="101.50">
        <route edges="70 476 1075 1299 -1309 1635"/>
    </vehicle>
    <vehicle id="204" depart="102.00">
        <route edges="3440 -3326 -3108 4624 5002 -2872 -2096 -1835 -1635 -1094 1093 -1075 813 816 864 1021 1084 2868 2942"/>
    </vehicle>
    <vehicle id="205" depart="102.50">
        <route edges="3909 -3907 619 670 -1416 -1344 311 -293 230 -252 395 -464 476"/>
    </vehicle>
    <vehicle id="206" depart="103.00">
        <route edges="1112 1187 1266 1855 2120 2183 -2942 -2868 1157 -1025 1027 -1028 -866"/>
    </vehicle>
    <vehicle id="207" depart="103.50">
        <route edges="-1262 -1187 -1112 1108 -1106 -885 5493 5824 -5519"/>
    </vehicle>
    <vehicle id="208" depart="104.00">
        <route edges="2868 2942 -2183 -2120 -1855 -1266 -1187 -1112 1108 -1106 -1039 -1037 -882 -816"/>
    </vehicle>
    <vehicle id="209" depart="104.50">
        <route edges="272 3909 -3907 619 670 -1416 -1344 311 -293 230 -252 395 -464 476 813 816 864 1027 1160"/>
    </vehicle>
    <vehicle id="210" depart="105.00">
        <route edges="-2839 -2147 2919 2998 -1416 -1414 2395"/>
    </vehicle>
    <vehicle id="212" depart="106.00">
        <route edges="-3168 -1459 -1404 70 464 1328 -1299"/>
    </vehicle>
    <vehicle id="213" depart="106.50">
        <route edges="-5034 -2872 -2096 2166"/>
    </vehicle>
    <vehicle id="214" depart="107.00">
        <route edges="1021 1076 1037 -387 383 219 239 641 1112 1187 1266 1855 2120"/>
    </vehicle>
    <vehicle id="215" depart="107.50">
        <route edges="1344 1416 -2998 -2919 404"/>
    </vehicle>
    <vehicle id="216" depart="108.00">
        <route edges="1266 1855 2120 2183 -2942 -2868 1157 1253 1308"/>
    </vehicle>
    <vehicle id="217" depart="108.50">
        <route edges="-586 -391 -249 -219 -133 70 464 -395 252 -230 293"/>
    </vehicle>
    <vehicle id="218" depart="109.00">
        <route edges="-2926 -2859 2857 -2769 -429 -362 -153 -23 -11 3 27 34 133 219 239 641 5519 -5824 -5493"/>
    </vehicle>
    <vehicle id="219" depart="109.50">
        <route edges="5826 -4750 -1370 -1316 -1261 1259 -1119 -1047 -649 -614 391 586 646 821 -665 -265 73 75 -5 11 91 707"/>
    </vehicle>
    <vehicle id="220" depart="110.00">
        <route edges="5001 2152 2213 -2247 -1837 1843 -1845 -1177 -1092"/>
    </vehicle>
    <vehicle id="221" depart="110.50">
        <route edges="707 1148 -1152 -380 -15 3 27 38 395 1328 -1309 1635 1835 2096"/>
    </vehicle>
    <vehicle id="222" depart="111.00">
        <route edges="397 -380 -15 3 27 38 395 1328 -1309 1635 1837 2247"/>
    </vehicle>
    <vehicle id="223" depart="111.50">
        <route edges="-1193 -1121 -1047 -649 -614 391 586 646 821 -665 -265 73 75 -5 11 23 100 199 226 268 3907 -3909"/>
    </vehicle>
    <vehicle id="224" depart="112.00">
        <route edges="813 816 866 1036 1093 -1075 -476 -70 -34 44 73 75 397 1152 -1148"/>
    </vehicle>
    <vehicle id="225" depart="112.50">
        <route edges="-5846 -5512 -4378 -2261 2183 -2942 -2868 -1084 1076 1037 1039 -885 -237 -219 -383"/>
    </vehicle>
    <vehicle id="226" depart="113.00">
        <route edges="-476 -70 133 219 239 641 1112 1187 1262 -1261"/>
    </vehicle>
    <vehicle id="227" depart="113.50">
        <route edges="-460 -376 -335 -11 3 27 34 133 219 237 341 383"/>
    </vehicle>
    <vehicle id="228" depart="114.00">
        <route edges="1261 -1262 -1187 -1112"/>
    </vehicle>
    <vehicle id="229" depart="114.50">
        <route edges="-894 821 -665 -265 -44 34 133 219 237 341 387 1039 -885 -237"/>
    </vehicle>
    <vehicle id="230" depart="115.00">
        <route edges="-199 283 311 -293 -153 100"/>
    </vehicle>