<?xml version="1.0" encoding="UTF-8"?>

<!-- generated on 2021-07-15 23:37:22 by Eclipse SUMO duarouter Version 1.9.2
<configuration xmlns:xsi="http://www.w3.org/2001/XMLSchema-instance" xsi:noNamespaceSchemaLocation="http://sumo.dlr.de/xsd/duarouterConfiguration.xsd">

    <input>
        <net-file value="medium_rand//u_map.net.xml"/>
        <route-files value="trips.trips.xml"/>
    </input>

    <output>
        <output-file value="medium_rand//training/route_2000_04_8.rou.xml"/>
        <alternatives-output value="medium_rand//training/route_2000_04_8.rou.alt.xml"/>
    </output>

    <time>
        <begin value="0"/>
        <end value="2000"/>
    </time>

    <report>
        <no-warnings value="true"/>
        <ignore-errors value="true"/>
        <no-step-log value="true"/>
    </report>

</configuration>
-->

<routes xmlns:xsi="http://www.w3.org/2001/XMLSchema-instance" xsi:noNamespaceSchemaLocation="http://sumo.dlr.de/xsd/routes_file.xsd">
    <vehicle id="0" depart="0.00">
        <route edges="-1092 1090 -1094 -1036 1032"/>
    </vehicle>
    <vehicle id="2" depart="0.80">
        <route edges="636 816 882 1037 -387 383 219 239 639 659 5173"/>
    </vehicle>
    <vehicle id="4" depart="1.60">
        <route edges="2919 2999 -2839 2835 -2857 2859 2928 3108 3326 -3440"/>
    </vehicle>
    <vehicle id="5" depart="2.00">
        <route edges="-5173 -659 -614 -249 237 341 387 636 816 866 1036 1094 1635 1843"/>
    </vehicle>
    <vehicle id="6" depart="2.40">
        <route edges="-237 249 391 586 646 821 -665 -265 73 75 -5 11 23 100 199 2395"/>
    </vehicle>
    <vehicle id="7" depart="2.80">
        <route edges="2928 4624 5002 -2872 -2096 -1835 -1635 -1094 1093 -1075 -476 -70 133 219 239 639 649 1047 1121 5165 5529"/>
    </vehicle>
    <vehicle id="8" depart="3.20">
        <route edges="-5844 -5512 -4378 -2261 2183 -2942 -2868 1157 -1025 1027 1160 -1092"/>
    </vehicle>
    <vehicle id="9" depart="3.60">
        <route edges="1187 1266 1855 2120 2183 -2942 -2868 -1084 1076 1037 -387 383 -133 70 464 -395 252 287 -364 -335 23 100 199 226"/>
    </vehicle>
    <vehicle id="10" depart="4.00">
        <route edges="-270 -226 2395 2757 -1152 -380 -15 3 27 34 133 219 239 641 1112 1187 1266 1855 2120 2183 -2942"/>
    </vehicle>
    <vehicle id="11" depart="4.40">
        <route edges="-2868 -1084 1076 1037 636 816 866 1036 1094 1635 1835 2166"/>
    </vehicle>
    <vehicle id="13" depart="5.20">
        <route edges="-5173 -659 649 1047 1117 1187 1266"/>
    </vehicle>
    <vehicle id="16" depart="6.40">
        <route edges="-2942 -2868 -1084 1076 1037 -387 383 219 239 641 1112 1187 1262"/>
    </vehicle>
    <vehicle id="17" depart="6.80">
        <route edges="-4378 -2261 2183 -2942 -2868 -1084 1076 1037 -387 383 -133 -34 44 73 75 397 -380 -15"/>
    </vehicle>
    <vehicle id="18" depart="7.20">
        <route edges="-100 -23 -11 3 27 34 133 219 237 341 387 1039"/>
    </vehicle>
    <vehicle id="19" depart="7.60">
        <route edges="2928 4624 5002 -2872 -2096 -1835 -1635 -1094 1093 1299"/>
    </vehicle>
    <vehicle id="20" depart="8.00">
        <route edges="-3142 1845 -1843 1835 2096 3131 3440 -3326 3318 3750"/>
    </vehicle>
    <vehicle id="21" depart="8.40">
        <route edges="-813 1075 1299 -1309 1635 1835 2096 3131 4738 5001 2233 2405 2859 2928"/>
    </vehicle>
    <vehicle id="22" depart="8.80">
        <route edges="-404 -323 -293 -153 -23 -11 3 27 44 265 665 -821 -646 -586"/>
    </vehicle>
    <vehicle id="23" depart="9.20">
        <route edges="-5835 -5505 -1372 -1316 -1261 -1181 -1112 5519 -5824"/>
    </vehicle>
    <vehicle id="24" depart="9.60">
        <route edges="-816 -636 -387 383 219 239 641 1112 1187 1266 1855 2110"/>
    </vehicle>
    <vehicle id="25" depart="10.00">
        <route edges="665 1230 2281 2648 -894 821 -665 -265 73 75 -5 11 23 100 199 1414"/>
    </vehicle>
    <vehicle id="26" depart="10.40">
        <route edges="-237 249 614 649 1047 1121 5165 5531"/>
    </vehicle>
    <vehicle id="27" depart="10.80">
        <route edges="383 -133 70 464 -395 252 -230 362 429 2769 -2835 -2147"/>
    </vehicle>
    <vehicle id="28" depart="11.20">
        <route edges="-153 -23 -11 3 27 34 133 219 239 641 1112 1181 1261 -1262 -1187"/>
    </vehicle>
    <vehicle id="29" depart="11.60">
        <route edges="-2798 -1368 -1316 -1261 1259 -1119 -1047 -649 -614 391 586 646 821 -665 -265 -44 38"/>
    </vehicle>
    <vehicle id="30" depart="12.00">
        <route edges="-38 34 1404 1459 3168"/>
    </vehicle>
    <vehicle id="31" depart="12.40">
        <route edges="-2996 -2853 2835 -2769 -429 -362 -153 -23 -11 3 27 34 133 219 239 641 1112 1187 1266 1855 2110 5507"/>
    </vehicle>
    <vehicle id="32" depart="12.80">
        <route edges="-668 670 3600 3902 -2839 2835 -2857"/>
    </vehicle>
    <vehicle id="33" depart="13.20">
        <route edges="341 387 636 816 864 1025 1253 1308"/>
    </vehicle>
    <vehicle id="34" depart="13.60">
        <route edges="-639 -239 249 391 586 646 821 1230 2281 2648 -894 -646"/>
    </vehicle>
    <vehicle id="35" depart="14.00">
        <route edges="2403 -429 -362 -153 -23 -11 3 27 34 1404 1459 3168"/>
    </vehicle>
    <vehicle id="36" depart="14.40">
        <route edges="-5846 -5512 -4378 -2261 2183 -2942 -2868 -1084 1076 1037 -387 383 -133 -34 44 73 75 -5 15"/>
    </vehicle>
    <vehicle id="38" depart="15.20">
        <route edges="270 -5652 -5268 2757"/>
    </vehicle>
    <vehicle id="39" depart="15.60">
        <route edges="-226 -199 283 311 323 404 411 2233 2405 2859 2928 3108 3308 -2934"/>
    </vehicle>
    <vehicle id="40" depart="16.00">
        <route edges="4750 -5826 -5497 2880 -1370 -1316 -1262 1266"/>
    </vehicle>
    <vehicle id="41" depart="16.40">
        <route edges="-4046 -1177 -1092 1090 1309 -1299 -1075 -476 -70 -34 38"/>
    </vehicle>
    <vehicle id="43" depart="17.20">
        <route edges="-3108 4624 5001 2233 2403 -429 -404 2147 2835"/>
    </vehicle>
    <vehicle id="44" depart="17.60">
        <route edges="-1181 1187 1266 1855 2120 2183 -2942 -2868 1157 -1025"/>
    </vehicle>
    <vehicle id="45" depart="18.00">
        <route edges="133 219 237 341 387 636"/>
    </vehicle>
    <vehicle id="46" depart="18.40">
        <route edges="-1266 -1187 -1117 1119"/>
    </vehicle>
    <vehicle id="47" depart="18.80">
        <route edges="-1108 -641 -239 249 391 586 646 821 -665 -265 73 75 397"/>
    </vehicle>
    <vehicle id="48" depart="19.20">
        <route edges="-1119 -1047 -649 -614 391 586 646 821 -665 -265 73 75 397 1152 2779"/>
    </vehicle>
    <vehicle id="50" depart="20.00">
        <route edges="411 2233 2405 2859 2928 4624"/>
    </vehicle>
    <vehicle id="51" depart="20.40">
        <route edges="270 -5652 -5268 2757 -1152 -380 -15 11 23 100 199 2395 5268 5652 -270"/>
    </vehicle>
    <vehicle id="52" depart="20.80">
        <route edges="-4046 1845 -1843 1835 2096 3131 4738 5001 2233 2405 2857 -2835 2839 -3902 3903 4077 4396 5178"/>
    </vehicle>
    <vehicle id="53" depart="21.20">
        <route edges="-2857 -2405 2403 -429 -362 230 -252 395 -464 476 813 816 864 1025 -1157 -1084"/>
    </vehicle>
    <vehicle id="54" depart="21.60">
        <route edges="-2110 -1855 -1266 1262 1316"/>
    </vehicle>
    <vehicle id="55" depart="22.00">
        <route edges="1635 1843 -1845 -1177 -1092 1090 1309 -1299 -1075 -476 -70 -34"/>
    </vehicle>
    <vehicle id="56" depart="22.40">
        <route edges="-866 882 1037 -387 383 -133 70 464 -395 -38 34"/>
    </vehicle>
    <vehicle id="57" depart="22.80">
        <route edges="133 219 237 341 383 -133 70"/>
    </vehicle>
    <vehicle id="58" depart="23.20">
        <route edges="2839 -2999 -2919 404 411 2233 2405 2859 2928 3108 3318 3750"/>
    </vehicle>
    <vehicle id="59" depart="23.60">
        <route edges="-586 -391 614 -639 -239 249 391 586 646 821"/>
    </vehicle>
    <vehicle id="60" depart="24.00">
        <route edges="-335 -11 3 27 34 133 219 237 341 387 -1037 -882"/>
    </vehicle>
    <vehicle id="61" depart="24.40">
        <route edges="2839 -2999 -2919 404 -362 230 -252 395 -464 476 813 816 882 1037 636 -813"/>
    </vehicle>
    <vehicle id="62" depart="24.80">
        <route edges="2859 2928 4624 5002 -2872 -2096 -1835 1837 2247 -2213"/>
    </vehicle>
    <vehicle id="63" depart="25.20">
        <route edges="-3902 -3600 -1416 -1344 311 -293 -153 -23 -11 3 27 34 133 219 237 885 1106"/>
    </vehicle>
    <vehicle id="64" depart="25.60">
        <route edges="-894 821 -665 -265 -44"/>
    </vehicle>
    <vehicle id="65" depart="26.00">
        <route edges="-670 -619 -268 270 -5652 -5268 2757 -1152 -380 -15 3 27 34 70 476 813 816 864 1021 1084 2868 2942 -2183 -2120"/>
    </vehicle>
    <vehicle id="66" depart="26.40">
        <route edges="38 395 -464 -70 1404 1459"/>
    </vehicle>
    <vehicle id="70" depart="28.00">
        <route edges="133 219 237 341 387 636 816 864 1025"/>
    </vehicle>
    <vehicle id="71" depart="28.40">
        <route edges="-404 2919 2998 -670 -619 1583 3292 4107 5542 -5215 -4125 -3292 -1583"/>
    </vehicle>
    <vehicle id="73" depart="29.20">
        <route edges="-2229 2213 -2247 -1837 1835 2096 3131 4738"/>
    </vehicle>
    <vehicle id="74" depart="29.60">
        <route edges="-2962 -2802 -1372 -1316 -1262 1266 1855 2120 2183 -2942 -2868 1157 -1025 1027 1160 1177 1845"/>
    </vehicle>
    <vehicle id="75" depart="30.00">
        <route edges="-1262 -1187 -1112 1108 -1106 -1039 636"/>
    </vehicle>
    <vehicle id="76" depart="30.40">
        <route edges="-1037 -882 866 1036 1094 1635 1837"/>
    </vehicle>
    <vehicle id="77" depart="30.80">
        <route edges="-2152 2233 2403 -429 -362 -153 -23 -11 3 27 38 252"/>
    </vehicle>
    <vehicle id="78" depart="31.20">
        <route edges="341 387 636 816 866 1036 1094 1635 1835 2096 3131 4738 5001 2233 2403 2769 -2857"/>
    </vehicle>
    <vehicle id="79" depart="31.60">
        <route edges="-2853 -2147 2919 2998 -1416 -1414 226 268"/>
    </vehicle>
    <vehicle id="80" depart="32.00">
        <route edges="649 1047 1117 -1112 1108 -1106"/>
    </vehicle>
    <vehicle id="82" depart="32.80">
        <route edges="-3168 -1459 -1404 133 219 249 391 586 646 821"/>
    </vehicle>
    <vehicle id="83" depart="33.20">
        <route edges="-619 -268 270 -5652 -5268 2757 -1152 -380 -15 3 27 34 70 476 1075 -1093 -1036"/>
    </vehicle>
    <vehicle id="84" depart="33.60">
        <route edges="-1230 -665 -265 73 75 -5 11 23 153 362 411 2233 2405 2859 2928 3108 3318"/>
    </vehicle>
    <vehicle id="85" depart="34.00">
        <route edges="-646 -586 -391 -249 -219 -133 -34 44 73 75 397 1152 2779"/>
    </vehicle>
    <vehicle id="88" depart="35.20">
        <route edges="11 91 707 1148 -2757 -2395"/>
    </vehicle>
    <vehicle id="89" depart="35.60">
        <route edges="-1299 -1075 813"/>
    </vehicle>
    <vehicle id="90" depart="36.00">
        <route edges="-2839 2835 -2769 -429 -362 230 -252 395 -464 476"/>
    </vehicle>
    <vehicle id="91" depart="36.40">
        <route edges="341 383 219 239 639 659 5173"/>
    </vehicle>
    <vehicle id="92" depart="36.80">
        <route edges="-153 100 283 311 323 404 411 2233 2405 2859 2928 3108 3326 -3440"/>
    </vehicle>
    <vehicle id="93" depart="37.20">
        <route edges="1299 -1328 -464 -70 133 219 249 391"/>
    </vehicle>
    <vehicle id="94" depart="37.60">
        <route edges="-364 -335 -11 3 27 34 70 476 813 816 882"/>
    </vehicle>
    <vehicle id="95" depart="38.00">
        <route edges="-2919 404 -362 -153 -23 -11 3 27 34 133 219 239 639 649"/>
    </vehicle>
    <vehicle id="96" depart="38.40">
        <route edges="-4750 -1370 -1316 -1261 -1181 -1112 5519 -5824 -5493 341 383 -133 70 464 -395 252 -230 -153"/>
    </vehicle>
    <vehicle id="97" depart="38.80">
        <route edges="-2830 2757 -1152 -380 -15 3 27 34 70 476 1075 1299 -1328"/>
    </vehicle>
    <vehicle id="98" depart="39.20">
        <route edges="821 -665 -265 -44 34 133 219 239 641 1112 1187 1262"/>
    </vehicle>
    <vehicle id="99" depart="39.60">
        <route edges="-2403 2405 2859 2928 4624 -4738 3440"/>
    </vehicle>
    <vehicle id="100" depart="40.00">
        <route edges="-813 1075 1299 -1309 1635 1835 2096 3131 3440"/>
    </vehicle>
    <vehicle id="101" depart="40.40">
        <route edges="-1414 2395 2757 -1152 -380 -15 3 27 34 133 219 237 341 387 -1037 -882"/>
    </vehicle>
    <vehicle id="102" depart="40.80">
        <route edges="649 1047 1117 -1112 1108 -1106 -1039 636 816 866 1036 1094 1635 1835 2096 3131 3440 -3326 3318"/>
    </vehicle>
    <vehicle id="103" depart="41.20">
        <route edges="38 395 -464 -70 -34 44 265 665 -821 -646"/>
    </vehicle>
    <vehicle id="104" depart="41.60">
        <route edges="-1299 -1075 813 816 882 1037"/>
    </vehicle>
    <vehicle id="105" depart="42.00">
        <route edges="-5529 -5165 1193 -659 -614 391 586 646 821 -665 -265 73 75 397 1152 -2757 -2395 -199 -100"/>
    </vehicle>
    <vehicle id="106" depart="42.40">
        <route edges="-1308 -1253 -1025 1027 1160 1177 3142 5810 -5409 -4046"/>
    </vehicle>
    <vehicle id="107" depart="42.80">
        <route edges="-2830 2757"/>
    </vehicle>
    <vehicle id="108" depart="43.20">
        <route edges="-70 133 219 239 641 1112 1181 1261 -1262"/>
    </vehicle>
    <vehicle id="109" depart="43.60">
        <route edges="44 73 75 397 1152 -2757 -2395 -199 -100"/>
    </vehicle>
    <vehicle id="110" depart="44.00">
        <route edges="2926 -2996 -2853 2835 -2769 -429 -362 -153 -23 -11 3 27 44 265 665 1230 1406"/>
    </vehicle>
    <vehicle id="111" depart="44.40">
        <route edges="1021 1076 1037 636 816 882 -1076"/>
    </vehicle>
    <vehicle id="112" depart="44.80">
        <route edges="2839 -2999 -2919 404 -362 -153 -23 -11 3 27 34 133 219 239 641 1108"/>
    </vehicle>
    <vehicle id="113" depart="45.20">
        <route edges="-619 -268 270 -5652 -5268 2757 -1152 -380 -15 3 27 34 133 219 239 639 649 1047 1121"/>
    </vehicle>
    <vehicle id="114" depart="45.60">
        <route edges="-4083 -668 -619 1583 3292 4107 5542 -5215 -4125 -3292 -1583 619"/>
    </vehicle>
    <vehicle id="115" depart="46.00">
        <route edges="-411 -362 230 -252 395 1328 -1299"/>
    </vehicle>
    <vehicle id="116" depart="46.40">
        <route edges="2403 2769 -2835 2839"/>
    </vehicle>
    <vehicle id="117" depart="46.80">
        <route edges="668 -3903 3902 -2839 2835 -2769 -429 -362 230 -252 395 -464"/>
    </vehicle>
    <vehicle id="118" depart="47.20">
        <route edges="2839 -2999 -2919 404 -362 -153 -23 -11 3 27 34 133 219"/>
    </vehicle>
    <vehicle id="119" depart="47.60">
        <route edges="-1160 -1027 1021 1084 2868 2942 -2183"/>
    </vehicle>
    <vehicle id="120" depart="48.00">
        <route edges="2928 4624 5001 2233 2403 -429 -362 -153 -23 -11 3 27 44 265 665 -821 894 -2648 -2281 -1230"/>
    </vehicle>
    <vehicle id="121" depart="48.40">
        <route edges="1037 636 816 866 1032 1092 1177 4046 5409 -5810"/>
    </vehicle>
    <vehicle id="122" depart="48.80">
        <route edges="-64 -3 11 23 153 362 411 2233"/>
    </vehicle>
    <vehicle id="123" depart="49.20">
        <route edges="586 646 821 -665 -265 73 75 -5 11 23 100 199 1414 -1344"/>
    </vehicle>
    <vehicle id="124" depart="49.60">
        <route edges="34 70 476 1075 1299 -1309 1635 1835 2096 3131 3440 -3326 3308 -2934"/>
    </vehicle>
    <vehicle id="125" depart="50.00">
        <route edges="1027 -1028 -866 864 1025 1253 1304"/>
    </vehicle>
    <vehicle id="126" depart="50.40">
        <route edges="38 395 1328 -1309 1635 1835 2096 3131 4738 5001 -411"/>
    </vehicle>
    <vehicle id="127" depart="50.80">
        <route edges="1344 -1414 2395 2757 -1152 -380 -15 3 27 34 133 219"/>
    </vehicle>
    <vehicle id="128" depart="51.20">
        <route edges="1344 -1414 2395 2757 -1152 -380 -15 3 27 38 252"/>
    </vehicle>
    <vehicle id="129" depart="51.60">
        <route edges="-4083 -668 670 -1416 -1344 311 -293 -153 -23 -11 3 27 34 133 219 239 641 1112 1187 1266 1855 2120 2183 -2942 -2868"/>
    </vehicle>
    <vehicle id="130" depart="52.00">
        <route edges="-2839 2835 -2769 -429 -362 -153 -23 -11 3 27 34 133 219 239 641 1112 1181 1261 1316 1370 -2880 -2798"/>
    </vehicle>
    <vehicle id="131" depart="52.40">
        <route edges="2648 -894 821 -665 -265 -44 34 133 219 239 641 1112 -1117"/>
    </vehicle>
    <vehicle id="132" depart="52.80">
        <route edges="-1414 -199 283 311 323 404 411 2233 2405 2857"/>
    </vehicle>
    <vehicle id="133" depart="53.20">
        <route edges="1037 636 816 866 1036 1094 1635 1835 2096 3131 4738 5002"/>
    </vehicle>
    <vehicle id="135" depart="54.00">
        <route edges="-1160 -1028 1036 1093 1299"/>
    </vehicle>
    <vehicle id="136" depart="54.40">
        <route edges="1039 -885 5493 5824 -5519 1112 1181 1261 -1262"/>
    </vehicle>
    <vehicle id="137" depart="54.80">
        <route edges="-2261 2183 -2942 -2868 1157 -1025 1021 1084 2868 2942"/>
    </vehicle>
    <vehicle id="138" depart="55.20">
        <route edges="1039 -885 341 383 -133 -34 44 73 75 397"/>
    </vehicle>
    <vehicle id="140" depart="56.00">
        <route edges="-1171 -1160 -1027 1021 1076 1037 -387 383 219 239 641 1112 1181 1259"/>
    </vehicle>
    <vehicle id="141" depart="56.40">
        <route edges="-64 27 34 133 219 239 639 659 5173"/>
    </vehicle>
    <vehicle id="142" depart="56.80">
        <route edges="4046 5409 -5810 -3142 -1177 -1160 -1027 1021 1076 1037 -387 383 219 239 639 -614"/>
    </vehicle>
    <vehicle id="143" depart="57.20">
        <route edges="3902 -2839 2835 -2769 -429 411 2152 2213 -2247"/>
    </vehicle>
    <vehicle id="144" depart="57.60">
        <route edges="199 1414 -1344 311"/>
    </vehicle>
    <vehicle id="145" depart="58.00">
        <route edges="-3142 -1177 -1092 1090 1309 -1328 -395 252 287 -364 -335 91 707 1148 -2757 -2395"/>
    </vehicle>
    <vehicle id="146" depart="58.40">
        <route edges="-1037 -882 864 1021 1076 1037 -387 383 219 239 639 649"/>
    </vehicle>
    <vehicle id="147" depart="58.80">
        <route edges="2403 -429 -362 -153 -23 -11 3 27 34 133 219 239 641 1108"/>
    </vehicle>
    <vehicle id="148" depart="59.20">
        <route edges="404 -362 -153 -23 -11 3 27 34 133 219 239 641 1108"/>
    </vehicle>
    <vehicle id="149" depart="59.60">
        <route edges="-219 -133 -34 44 73 75 397 1152 -2757 2830 4889"/>
    </vehicle>
    <vehicle id="151" depart="60.40">
        <route edges="-230 -153 -23 335 364 -287"/>
    </vehicle>
    <vehicle id="152" depart="60.80">
        <route edges="2395 2757 -1152 -380 -15 3 27 34 133 219 239 641 1112 1187 1266"/>
    </vehicle>
    <vehicle id="153" depart="61.20">
        <route edges="1094 1309 -1299 -1075 -476 464"/>
    </vehicle>
    <vehicle id="154" depart="61.60">
        <route edges="-2919 404 411 2152 2213 -2247 -1837 1843 -1845 -1177 1171"/>
    </vehicle>
    <vehicle id="155" depart="62.00">
        <route edges="-133 70 476 1075 1299 -1309 1635 1835 2096 3131 3440 -3326 3308"/>
    </vehicle>
    <vehicle id="156" depart="62.40">
        <route edges="2942 -2183 -2120 -1855 -1266 -1187 -1112 5519 -5824 -5493 341 383 -133 70 464 -395 252 -230 293 323 2147 2839"/>
    </vehicle>
    <vehicle id="157" depart="62.80">
        <route edges="-636 -387 383 -133 -34 -27 -3 5"/>
    </vehicle>
    <vehicle id="158" depart="63.20">
        <route edges="383 -133 -34 -27 -3"/>
    </vehicle>
    <vehicle id="159" depart="63.60">
        <route edges="-5173 -659 -614 391 586 646 821 -665 -265 -44 34 133"/>
    </vehicle>
    <vehicle id="160" depart="64.00">
        <route edges="-362 -153 -23 -11 3 64 -73 -44"/>
    </vehicle>
    <vehicle id="161" depart="64.40">
        <route edges="1090 1635 1835 2096 3131 3440"/>
    </vehicle>
    <vehicle id="162" depart="64.80">
        <route edges="1108 -1106 -885 341 383 -133 70 464 -395 252 287 -364 -335 23 100 283 311 -293"/>
    </vehicle>
    <vehicle id="163" depart="65.20">
        <route edges="1181 1259 -1119 -1047 -649 -614 391 586 646 821 -665 -265 73 75 -5 15"/>
    </vehicle>
    <vehicle id="164" depart="65.60">
        <route edges="2868 2942 -2183 -2120 -1855 -1266 -1187 -1112 5519 -5824 -5493 341 383 -133 70 464 -395 252 -230 293 323 2147 2839 -3902 -3600"/>
    </vehicle>
    <vehicle id="165" depart="66.00">
        <route edges="2853 2996 -2926 -2859 2857 -2769 -429 -362 -153 -23 -11 3 27 38"/>
    </vehicle>
    <vehicle id="166" depart="66.40">
        <route edges="-3131 -2096 -1835 -1635 -1094 1093 -1075 813 816 864 1021 1084 1157 -1025"/>
    </vehicle>
    <vehicle id="167" depart="66.80">
        <route edges="5542 -5215 -4125 -3292 -1583 619 670 -2998 -2919 404 411 2152"/>
    </vehicle>
    <vehicle id="168" depart="67.20">
        <route edges="476 1075 1299 -1328 -395 252 -230 293 323 2919 2998 -670 668"/>
    </vehicle>
    <vehicle id="169" depart="67.60">
        <route edges="-5669 -4250 -2779 -1152 -380 -15 3 27 34 70 476 813 816 866 1032 1092 1177 4046 5409 -5810"/>
    </vehicle>
    <vehicle id="170" depart="68.00">
        <route edges="-341 885 -1039 636 816 864 1021 1080"/>
    </vehicle>
    <vehicle id="171" depart="68.40">
        <route edges="-2962 -2802 -1372 -1316 -1261 1259 -1119 -1047 -649 -614 391 586 646 821 -665 -265 73 75 397 1152 -2757 -2395"/>
    </vehicle>
    <vehicle id="172" depart="68.80">
        <route edges="-226 -199 283 311 323 404 411 -5001 -4624"/>
    </vehicle>
    <vehicle id="173" depart="69.20">
        <route edges="1121 1193 -659 -614 -249 237 341 387 636 816 864 1027 1160"/>
    </vehicle>
    <vehicle id="174" depart="69.60">
        <route edges="-2999 -2919 404 -362 -153 -23 -11 3 27 34 133 219 239 641"/>
    </vehicle>
    <vehicle id="175" depart="70.00">
        <route edges="-2857 -2405 -2233 2152 2213 -2247"/>
    </vehicle>
    <vehicle id="176" depart="70.40">
        <route edges="-3909 -272 268 619 670 -1416 -1414 226 272 3909"/>
    </vehicle>
    <vehicle id="177" depart="70.80">
        <route edges="5001 2233 2403 -429 -362 -153 -23 335"/>
    </vehicle>
    <vehicle id="178" depart="71.20">
        <route edges="-1181 -1112 1108 -1106 -1039 636 816 866 1032 1092 1177 4046 5409 -5810"/>
    </vehicle>
    <vehicle id="179" depart="71.60">
        <route edges="-2757 -2395 -199 -100 -23 -11 3 27 34 133 219 239 641 1112 1181 1261 1316 1370 4750 -5826"/>
    </vehicle>
    <vehicle id="180" depart="72.00">
        <route edges="5001 2233 2403 -429 -362 -153 -23 -11 3 27 44 265 665 1230 2281"/>
    </vehicle>
    <vehicle id="181" depart="72.40">
        <route edges="-5512 -4378 -2261 -2120 -1855 -1266 1262 1316"/>
    </vehicle>
    <vehicle id="182" depart="72.80">
        <route edges="-2802 -1372 -1316 -1261 -1181 -1112 1108 -1106 -1039 636 816 866 1036 1094 1635 1835 2096 3131 4738 5001"/>
    </vehicle>
    <vehicle id="183" depart="73.20">
        <route edges="2926 -2996 -2853 2835 -2769 -429 -362 -153 -23 -11 3 27 34 133 219 239 641 1112 1187 1266"/>
    </vehicle>
    <vehicle id="184" depart="73.60">
        <route edges="1259 -1119 1117 -1112 1108 -1106 -1039 636 816 866 1036 1094 1635 1835 2096 3131 4738 5001 2233 2405 2859 2926"/>
    </vehicle>
    <vehicle id="185" depart="74.00">
        <route edges="-3750 -3318 -3108 4624 5002 -2872 -2096 -1835 -1635 -1094 1093 -1075 -476 -70 133 219 249 391 586 646"/>
    </vehicle>
    <vehicle id="187" depart="74.80">
        <route edges="2233 2403 -429 -362 230 -252 395 -464 476 813 816 882 1037"/>
    </vehicle>
    <vehicle id="188" depart="75.20">
        <route edges="2769 -2835 -2147 404 -362 -153 -23 -11 3 27 34 133 219 239 641 1112 1187 1266 1855 2120 2183"/>
    </vehicle>
    <vehicle id="189" depart="75.60">
        <route edges="15 380 1152 -1148 -707 -91 -11 5"/>
    </vehicle>
    <vehicle id="190" depart="76.00">
        <route edges="-4046 -1177 -1160 -1027 1021 1076 1037 -387 383 219 239 639 -614 -249"/>
    </vehicle>
    <vehicle id="191" depart="76.40">
        <route edges="364 -287 -230 362 411 2152 2213 -2247 -1837 -1635"/>
    </vehicle>
    <vehicle id="192" depart="76.80">
        <route edges="-1117 -1047 -649 -614 391 586 646 821 -665 -265 73 75 397 1152 -2757 5268"/>
    </vehicle>
    <vehicle id="193" depart="77.20">
        <route edges="-2213 -2152 2233 2405 2857 -2835 2839 -2999 -2919"/>
    </vehicle>
    <vehicle id="194" depart="77.60">
        <route edges="-1106 -1039 636 816 864 1027 -1028 -866"/>
    </vehicle>
    <vehicle id="195" depart="78.00">
        <route edges="-226 2395 2757 -1152 -380 -15 3 27 34 133 219 239 641 1112 1181 1261 1316 1368 2798 5497 5826 -4750"/>
    </vehicle>
    <vehicle id="196" depart="78.40">
        <route edges="34 70 464 -395 252 -230 293 323 2919 2998 3600 3903 4083"/>
    </vehicle>
    <vehicle id="197" depart="78.80">
        <route edges="2096 3131 4738 5001 2233 2403 -429 -362 -153 -23 -11 3 64 75 -5"/>
    </vehicle>
    <vehicle id="198" depart="79.20">
        <route edges="-1108 -641 639 649 1047 1117 -1112 1108"/>
    </vehicle>
    <vehicle id="199" depart="79.60">
        <route edges="-2839 2835 -2857 -2405"/>
    </vehicle>
    <vehicle id="200" depart="80.00">
        <route edges="1092 -1160 -1028 1036 1093 -1075 813"/>
    </vehicle>
    <vehicle id="201" depart="80.40">
        <route edges="-1028 1036 1093 -1075 -476 -70 133 -383"/>
    </vehicle>
    <vehicle id="202" depart="80.80">
        <route edges="-3902 -3600 -1416 -1414 2395 2757"/>
    </vehicle>
    <vehicle id="203" depart="81.20">
        <route edges="-1299 -1075 -476 -70 133 219 239 641 1112 1187"/>
    </vehicle>
    <vehicle id="204" depart="81.60">
        <route edges="1094 1635 1835 2096 3131 4738 5002 -2872 -2096 -1835"/>
    </vehicle>
    <vehicle id="205" depart="82.00">
        <route edges="-1328 -464 -70 133 219 239 641 1112 -1117 -1047"/>
    </vehicle>
    <vehicle id="206" depart="82.40">
        <route edges="670 -1416 -1344 311 -293 -153 -23 -11 3 27 34 133 219 249 614 -639 -239"/>
    </vehicle>
    <vehicle id="207" depart="82.80">
        <route edges="-5507 -2110 2120 2183 -2942 -2868 -1084 1076 1037 636 816 866 1036 1094 1635 1843 -1845"/>
    </vehicle>
    <vehicle id="208" depart="83.20">
        <route edges="813 816 866 1036 1094 1635 1835 2096 3131 4738 5001 2233 2405 2857 -2835 2839 -3902"/>
    </vehicle>
    <vehicle id="209" depart="83.60">
        <route edges="-3750 -3318 -3108 4624 5001 2233 2403 -429 -362 -153 -23 91 707 1148 -1152 -380 -15"/>
    </vehicle>
    <vehicle id="210" depart="84.00">
        <route edges="1021 1084 1157 -1025 1027 1160 1177 4046"/>
    </vehicle>
    <vehicle id="211" depart="84.40">
        <route edges="1266 1855 2120 2183 -2942 -2868 -1084 1076 1037 636 816 866 1036 1094 1635 1837 2247 -2213"/>
    </vehicle>
    <vehicle id="212" depart="84.80">
        <route edges="391 586 646 821 -665 -265 -44 34 133 219 237 885 1106 -1108"/>
    </vehicle>
    <vehicle id="213" depart="85.20">
        <route edges="2395 2757 -1152 -380 -15 11 23 100 283 1344"/>
    </vehicle>
    <vehicle id="214" depart="85.60">
        <route edges="70 476 1075 1299 -1309 1635 1835 2096 2872 -5002 -4738 -3131"/>
    </vehicle>
    <vehicle id="215" depart="86.00">
        <route edges="-2868 -1084 1076 1037 1039 1106 -1108"/>
    </vehicle>
    <vehicle id="216" depart="86.40">
        <route edges="-5001 5002 -2872 -2096 -1835 -1635 1309 -1328 -395 252 287"/>
    </vehicle>
    <vehicle id="217" depart="86.80">
        <route edges="270 -5652 -5268 -2395 -199 -100"/>
    </vehicle>
    <vehicle id="218" depart="87.20">
        <route edges="-3752 -3318 -3108 4624 5001 2233 2403 -429 -362 -153 -23 91 707 1148 -2757 -2395"/>
    </vehicle>
    <vehicle id="219" depart="87.60">
        <route edges="864 1021 1076 1037 -387 383 219 239 641 1112 1181 1261 1316 1370 4750 -5826"/>
    </vehicle>
    <vehicle id="220" depart="88.00">
        <route edges="3440 -3326 -3108 4624 5002 -2872 -2096 -1835 -1635 1309 -1299 -1093 1094 1635"/>
    </vehicle>
    <vehicle id="221" depart="88.40">
        <route edges="-1084 1076 1037 636 816 866 1036 1094 1635 1835 2096 3131 4738 5001 2233 2405 2859 2928"/>
    </vehicle>
    <vehicle id="222" depart="88.80">
        <route edges="-1414 -199 283 311 323 404 411 -5001 -4738 3440"/>
    </vehicle>
    <vehicle id="224" depart="89.60">
        <route edges="636 -813 -476 -70 -34 -27 -3"/>
    </vehicle>
    <vehicle id="225" depart="90.00">
        <route edges="3108 3308 -2934 2928 4624 -4738 3440"/>
    </vehicle>
    <vehicle id="226" depart="90.40">
        <route edges="2213 -2247 -1837 -1635 1309 -1328 -395 252 287"/>
    </vehicle>
    <vehicle id="227" depart="90.80">
        <route edges="-1092 1090 1309 -1299 -1075 -476 -70 133 219 239 641 1112 1187 1266 1855 2110 5507"/>
    </vehicle>
    <vehicle id="228" depart="91.20">
        <route edges="-2515 -1084 1076 1037 636 816 866 1036 1094 1635 1835 2096 3131 4738 5001 2233 2405 2859 2928 4624"/>
    </vehicle>
    <vehicle id="229" depart="91.60">
        <route edges="-268 270 -5652 -5268 2757 -1152 -380 -15 3 27 34 70 476 813 816 864 1021 1080"/>
    </vehicle>
    <vehicle id="230" depart="92.00">
        <route edges="-3440 4738 5001 2233 2403 -429 -362 -153 -23 -11 3 27 44 265 665 -821 894"/>
    </vehicle>
    <vehicle id="231" depart="92.40">
        <route edges="-226 2395 2757 -1152 -380 -15 3 27 34 133 219 239 641 1112 1181 1261 1316 1372 2802"/>
    </vehicle>
    <vehicle id="232" depart="92.80">
        <route edges="-380 -15 3 27 34 133 219 249 391 586 646"/>
    </vehicle>
    <vehicle id="233" depart="93.20">
        <route edges="3902 -2839 2835 -2769 -429 411 2152 2213 -2247 -1837 1835 2096"/>
    </vehicle>
    <vehicle id="234" depart="93.60">