<?xml version="1.0" encoding="UTF-8"?>

<!-- generated on 2021-07-16 02:06:24 by Eclipse SUMO duarouter Version 1.9.2
<configuration xmlns:xsi="http://www.w3.org/2001/XMLSchema-instance" xsi:noNamespaceSchemaLocation="http://sumo.dlr.de/xsd/duarouterConfiguration.xsd">

    <input>
        <net-file value="medium_rand//u_map.net.xml"/>
        <route-files value="trips.trips.xml"/>
    </input>

    <output>
        <output-file value="medium_rand//training/route_1000_03_2.rou.xml"/>
        <alternatives-output value="medium_rand//training/route_1000_03_2.rou.alt.xml"/>
    </output>

    <time>
        <begin value="0"/>
        <end value="1000"/>
    </time>

    <report>
        <no-warnings value="true"/>
        <ignore-errors value="true"/>
        <no-step-log value="true"/>
    </report>

</configuration>
-->

<routes xmlns:xsi="http://www.w3.org/2001/XMLSchema-instance" xsi:noNamespaceSchemaLocation="http://sumo.dlr.de/xsd/routes_file.xsd">
    <vehicle id="0" depart="0.00">
        <route edges="-2183 -2120 -1855 -1266 gneE13 -1106 -885 341 383 -133 -34 44 73 -64"/>
    </vehicle>
    <vehicle id="1" depart="0.30">
        <route edges="1119 -1259 1261 1316 1370"/>
    </vehicle>
    <vehicle id="2" depart="0.60">
        <route edges="-813 -476 -70 133 219 239 641 1112 1181 1259 -1119"/>
    </vehicle>
    <vehicle id="3" depart="0.90">
        <route edges="gneE25 -4229 -3907 619 668 gneE39"/>
    </vehicle>
    <vehicle id="4" depart="1.20">
        <route edges="-1230 -665 -265 73 75 -5 11 23 153 362 411 2233 2405 2859 2928 3108 3326 -3440"/>
    </vehicle>
    <vehicle id="5" depart="1.50">
        <route edges="2998 -1416 -1344 311 -293 230 -252 395 -464 -70 -34"/>
    </vehicle>
    <vehicle id="6" depart="1.80">
        <route edges="-464 476 1075 1299 -1309 1635 gneE36"/>
    </vehicle>
    <vehicle id="7" depart="2.10">
        <route edges="-237 239 641 1108 -1106 -1039 636 816 864 1025 -1157"/>
    </vehicle>
    <vehicle id="8" depart="2.40">
        <route edges="-1160 -1028 1036 1094 1635 1835 2096 3131 4738 5001 -411 429 -2403"/>
    </vehicle>
    <vehicle id="9" depart="2.70">
        <route edges="-1344 311 -293 -153 -23 -11 3 64 75"/>
    </vehicle>
    <vehicle id="10" depart="3.00">
        <route edges="2403 -429 411 2152 2213 gneE38 -1635 -1090 -1032"/>
    </vehicle>
    <vehicle id="11" depart="3.30">
        <route edges="885 -1039 -387 383 219 249 391 586 gneE23"/>
    </vehicle>
    <vehicle id="12" depart="3.60">
        <route edges="323 404 411 2152 2213 gneE38 1835"/>
    </vehicle>
    <vehicle id="13" depart="3.90">
        <route edges="15 380 1152 -2757 -2395 1414 1416 3600 3903"/>
    </vehicle>
    <vehicle id="14" depart="4.20">
        <route edges="1414 -1344 311 323 404 411 2152 2213 gneE38 gneE36"/>
    </vehicle>
    <vehicle id="15" depart="4.50">
        <route edges="2405 2859 2928 4624 5001 2152 2213 gneE38 -1635 -1094 -1036 1032"/>
    </vehicle>
    <vehicle id="16" depart="4.80">
        <route edges="2110 gneE10 gneE9 2183 gneE31 -1106 -885 341 383 -133 70 464 -395 252 -230 362"/>
    </vehicle>
    <vehicle id="17" depart="5.10">
        <route edges="1093 -1075 -476 464 -395 252 287 -364 -335 23 100 199 226 268 3907 -3909"/>
    </vehicle>
    <vehicle id="18" depart="5.40">
        <route edges="1108 gneE14 -1187 1181 1261"/>
    </vehicle>
    <vehicle id="19" depart="5.70">
        <route edges="27 38 252 -230 293 -311 1344 1416 -2998 -2919"/>
    </vehicle>
    <vehicle id="20" depart="6.00">
        <route edges="-4046 gneE35 -1635 1309 -1328 -395 252 287 -364 -335 23 100 199 2395 5268 5652 -270"/>
    </vehicle>
    <vehicle id="21" depart="6.30">
        <route edges="-1299 -1075 -476 464 -395 252 -230 293 323 2919 2998"/>
    </vehicle>
    <vehicle id="22" depart="6.60">
        <route edges="-2919 404 411 2233 2403"/>
    </vehicle>
    <vehicle id="23" depart="6.90">
        <route edges="-397 -5 3 27 34 70 476 813 816 864 1027 -1028"/>
    </vehicle>
    <vehicle id="24" depart="7.20">
        <route edges="-5824 -5493 341 387 636 816 864 1025 -1157"/>
    </vehicle>
    <vehicle id="25" depart="7.50">
        <route edges="2183 gneE31 -1106 -1039 636 816 866 1036 1094 1635 1835 2096 3131 4738 5001 2233 2405"/>
    </vehicle>
    <vehicle id="26" depart="7.80">
        <route edges="5652 -270 -226 2395 2757 -1152 -380 -15 3 27 34 133 219 237 341"/>
    </vehicle>
    <vehicle id="27" depart="8.10">
        <route edges="-5497 2880 -1370 -1316 -1262 gneE13 -1106 -1039 636 816 866 1036 1094 1635 1835 2096 3131 3440 -3326"/>
    </vehicle>
    <vehicle id="28" depart="8.40">
        <route edges="-3902 3903 -668 670 3600 3902 -2839 2835 -2857"/>
    </vehicle>
    <vehicle id="29" depart="8.70">
        <route edges="1266 1855 2120 2183 gneE31 -1106 -885 341 383 -133 -34 44 265 665 -821"/>
    </vehicle>
    <vehicle id="30" depart="9.00">
        <route edges="239 639 -614 391 586 646 821 -665 -265 73 75 -5 11 23 100 199 2395 2757"/>
    </vehicle>
    <vehicle id="31" depart="9.30">
        <route edges="-1259 -1181 -1112 -641 639 649 1047"/>
    </vehicle>
    <vehicle id="32" depart="9.60">
        <route edges="gneE16 gneE22 -5815 -5810"/>
    </vehicle>
    <vehicle id="33" depart="9.90">
        <route edges="gneE13 -1106 -1039 636 816 866 1036 1094 1635 gneE37"/>
    </vehicle>
    <vehicle id="34" depart="10.20">
        <route edges="287 -364 -335 23 100 199 1414 1416 -2998"/>
    </vehicle>
    <vehicle id="35" depart="10.50">
        <route edges="-1157 -1084 -1021"/>
    </vehicle>
    <vehicle id="36" depart="10.80">
        <route edges="2942 gneE31 -1106 -885 341 383 -133 70 464 -395 252 287 -364 -335 23 100 199 226 268 1583 3292 4107 5542"/>
    </vehicle>
    <vehicle id="37" depart="11.10">
        <route edges="-476 464 -395 252 -230 293 323 2919 2999"/>
    </vehicle>
    <vehicle id="38" depart="11.40">
        <route edges="-1027 -864 866 1032"/>
    </vehicle>
    <vehicle id="39" depart="11.70">
        <route edges="1108 -1106 -885 341 383 -133 70 464 -395 252 -230 293 -311 1344 1416"/>
    </vehicle>
    <vehicle id="40" depart="12.00">
        <route edges="gneE32 -2942 -2868 -1084 1076 1037 -387 383 219 249 391 586 gneE23 -4250 -2779 -2757 5268"/>
    </vehicle>
    <vehicle id="41" depart="12.30">
        <route edges="283 1344 -1414 226 268 619"/>
    </vehicle>
    <vehicle id="42" depart="12.60">
        <route edges="-2859 -2405 -2233 2152 2213 gneE38 -1635 -1094 1093 -1075 813 816 882 1037 1039 1106 gneE14 1262 1316 1368 2798"/>
    </vehicle>
    <vehicle id="43" depart="12.90">
        <route edges="-3903 3902 -2839 2835 -2769 -2403"/>
    </vehicle>
    <vehicle id="44" depart="13.20">
        <route edges="15 380 -397 -5 3 27 34 70 476 813 816 866"/>
    </vehicle>
    <vehicle id="45" depart="13.50">
        <route edges="-2928 2934 -3308 3326 -3440"/>
    </vehicle>
    <vehicle id="46" depart="13.80">
        <route edges="100 199 1414 -1344 -283"/>
    </vehicle>
    <vehicle id="47" depart="14.10">
        <route edges="1299 -1309 1635 gneE36 4046 gneE33"/>
    </vehicle>
    <vehicle id="48" depart="14.40">
        <route edges="-100 153 293 323 2919 2999 -2839"/>
    </vehicle>
    <vehicle id="49" depart="14.70">
        <route edges="gneE21 gneE17 gneE20 -1027 1021 1076 1037 1039 1106 gneE14 -1187 -1112"/>
    </vehicle>
    <vehicle id="50" depart="15.00">
        <route edges="383 219 239 641 1108 -1106"/>
    </vehicle>
    <vehicle id="51" depart="15.30">
        <route edges="-2395 -199 -100 -23 -11 3 27 34 133 219 249 614 -639"/>
    </vehicle>
    <vehicle id="52" depart="15.60">
        <route edges="-2152 2233 2403 -429 -362 -153 -23 91 707 1148 2779 4250 gneE24"/>
    </vehicle>
    <vehicle id="53" depart="15.90">
        <route edges="-362 -153 100 199 226"/>
    </vehicle>
    <vehicle id="54" depart="16.20">
        <route edges="-1032 1036 1093 -1075 -476 464 -395 252 287 -364 -335 -11 3"/>
    </vehicle>
    <vehicle id="55" depart="16.50">
        <route edges="226 270 -5652 -5268 2757 2779 4250 gneE24 -586 -391 614 649 1047 1121"/>
    </vehicle>
    <vehicle id="56" depart="16.80">
        <route edges="5815 gneE21 gneE17 gneE20 -1027 1021 1076 1037 -387 383 219 239 641 1112 1187 gneE13"/>
    </vehicle>
    <vehicle id="57" depart="17.10">
        <route edges="-3440 gneE34 5409 5815 gneE21 gneE17 gneE20 -1027 1021 1076 1037 -387 383 219 239 639 649 1047 1121 1193 -659"/>
    </vehicle>
    <vehicle id="58" depart="17.40">
        <route edges="-5519 1108 -1106 -1039 -1037 -1076"/>
    </vehicle>
    <vehicle id="59" depart="17.70">
        <route edges="-1021 1025 -1157 -1084 1076 -882"/>
    </vehicle>
    <vehicle id="60" depart="18.00">
        <route edges="-429 -362 -153 -23 -11 3 27 34 133 219 237 885 1106 gneE14 1266 1855 2120"/>
    </vehicle>
    <vehicle id="61" depart="18.30">
        <route edges="-1092 1090 1635 1835 2096 3131 4738 5001 2233 2403 -429 411"/>
    </vehicle>
    <vehicle id="62" depart="18.60">
        <route edges="-2857 -2405 2403 -429 -362 -153 -23 -11 3 64"/>
    </vehicle>
    <vehicle id="63" depart="18.90">
        <route edges="gneE32 -2942 -2868 1157 1253 1308 gneE20 1160 1177 4046 gneE33 3440 -3326 3308 -2934"/>
    </vehicle>
    <vehicle id="64" depart="19.20">
        <route edges="-816 -813 -476 464 -395 252 -230 293 -311 1344"/>
    </vehicle>
    <vehicle id="65" depart="19.50">
        <route edges="1416 -2998 -2919 404 411 2152 2213 gneE38 gneE36 -1177 -1160 -1027"/>
    </vehicle>
    <vehicle id="66" depart="19.80">
        <route edges="-3142 -1177 -1160 -1027 1021 1076 1037 636"/>
    </vehicle>
    <vehicle id="67" depart="20.10">
        <route edges="3308 -2934 2928 4624 5002 -2872 3131 4738 -4624"/>
    </vehicle>
    <vehicle id="68" depart="20.40">
        <route edges="-1635 1309 -1328 -395 252 287 -364 -335 23 100 199 226 268 3907 4229 gneE26"/>
    </vehicle>
    <vehicle id="69" depart="20.70">
        <route edges="-1261 -1181 1187 gneE13 -1106 -1039 636 816 864 1025 1253 1308 gneE16"/>
    </vehicle>
    <vehicle id="70" depart="21.00">
        <route edges="73 -64 27 34 133 219 237 885 1106 gneE32 -2183"/>
    </vehicle>
    <vehicle id="71" depart="21.30">
        <route edges="-3909 -272 268 619 670 -2998 -2919 404 411 2152"/>
    </vehicle>
    <vehicle id="72" depart="21.60">
        <route edges="gneE34 -4046 gneE35 -1635 1309 -1328 -395 -38 44 265 665"/>
    </vehicle>
    <vehicle id="73" depart="21.90">
        <route edges="1090 1635 1835 2096 3131 4738 5001 2233 2405"/>
    </vehicle>
    <vehicle id="74" depart="22.20">
        <route edges="gneE36 -1177 -1092 1090 1309 -1328 -395 252 -230 362"/>
    </vehicle>
    <vehicle id="75" depart="22.50">
        <route edges="-230 -153 -23 -11 3 27 34 133 219 237 341 387 -1037 -882"/>
    </vehicle>
    <vehicle id="76" depart="22.80">
        <route edges="-153 -23 -11 3 27 34 133 219 237 885 1106 gneE14 1266 1855 2120 2183 gneE31"/>
    </vehicle>
    <vehicle id="77" depart="23.10">
        <route edges="2928 4624 5001 2233 2405 2857 -2835 2839 -3902 -3600"/>
    </vehicle>
    <vehicle id="78" depart="23.40">
        <route edges="-1193 -1121 1117 1187 1266 1855 2120 2183"/>
    </vehicle>
    <vehicle id="79" depart="23.70">
        <route edges="-3308 -3108 4624 5001 2152 2213 gneE38 -1635 -1094 1093 -1075 813 816 882 1037 1039 -885 -237"/>
    </vehicle>
    <vehicle id="80" depart="24.00">
        <route edges="-1261 -1181 1187 1266 1855 2120 2183 gneE31"/>
    </vehicle>
    <vehicle id="81" depart="24.30">
        <route edges="-2857 -2405 -2233 2152 2213 gneE38 -1635 -1090"/>
    </vehicle>
    <vehicle id="82" depart="24.60">
        <route edges="-649 -614 391 586 646 894 -2648 -2281 -1230 -821"/>
    </vehicle>
    <vehicle id="83" depart="24.90">
        <route edges="gneE38 -1635 1309 -1328 -395 -38 44 73 75"/>
    </vehicle>
    <vehicle id="84" depart="25.20">
        <route edges="2853 2996 -2926 2928 4624 -4738 gneE34 5409 5815 gneE21 gneE17 gneE20 -1027 1025 1253"/>
    </vehicle>
    <vehicle id="85" depart="25.50">
        <route edges="395 -464 -70 -34 44 73 75 -5 11 23 153"/>
    </vehicle>
    <vehicle id="86" depart="25.80">
        <route edges="gneE32"/>
    </vehicle>
    <vehicle id="87" depart="26.10">
        <route edges="gneE13 -1106 -1039 636 816 866 1032 1092 1177 4046"/>
    </vehicle>
    <vehicle id="88" depart="26.40">
        <route edges="411 2152 2213 gneE38 -1635 1309 -1328 -395 252"/>
    </vehicle>
    <vehicle id="89" depart="26.70">
        <route edges="-283 -100"/>
    </vehicle>
    <vehicle id="90" depart="27.00">
        <route edges="237 341 387 636 816 866 1036 1094 1635 1835 2096 3131 4738 -4624"/>
    </vehicle>
    <vehicle id="91" depart="27.30">
        <route edges="230 287 -364 -335 23 153 293 323 2919 2998"/>
    </vehicle>
    <vehicle id="92" depart="27.60">
        <route edges="268 619 670 -1416 -1344 311 -293 -153 -23 -11 3 27 34 133 219 237 885 1106 gneE32 -2183 -2120"/>
    </vehicle>
    <vehicle id="93" depart="27.90">
        <route edges="5826 -4750 -1370 -1316 -1262 gneE13 -1106 -885 341 383 219 249 391 586 646 821 -665"/>
    </vehicle>
    <vehicle id="94" depart="28.20">
        <route edges="gneE25 -4229 -3907 619 670 -2998 -2919 404 411 2152 2213 gneE38 gneE36 4046 gneE33"/>
    </vehicle>
    <vehicle id="95" depart="28.50">
        <route edges="-2183 -2120 -1855 -1266 1262 1316 1370"/>
    </vehicle>
    <vehicle id="96" depart="28.80">
        <route edges="-3326 -3108 4624 5001 2152 2213 gneE38 -1635 -1094 1093 -1075 813 816 882 1037 1039 1106 -1108"/>
    </vehicle>
    <vehicle id="97" depart="29.10">
        <route edges="2120 2183 gneE31 -1106 -885 341 383 -133 -34 -27 -3"/>
    </vehicle>
    <vehicle id="98" depart="29.40">
        <route edges="-133 70 464 -395 252 -230 362 429 -2403"/>
    </vehicle>
    <vehicle id="99" depart="29.70">
        <route edges="-239 -219 -383"/>
    </vehicle>
    <vehicle id="100" depart="30.00">
        <route edges="636 816 866 1032 1092 1171 gneE22"/>
    </vehicle>
    <vehicle id="101" depart="30.30">
        <route edges="-91 23 153 362"/>
    </vehicle>
    <vehicle id="102" depart="30.60">
        <route edges="-391 -249 -219 -133 70 464 -395 252 -230 293 323 2919 2998 3600"/>
    </vehicle>
    <vehicle id="103" depart="30.90">
        <route edges="1027 -1028 1036 1093 -1075 -476 -70 -34 44 73 75 397 1152 2779 4250"/>
    </vehicle>
    <vehicle id="104" depart="31.20">
        <route edges="-73 -44 -27 -3 11 23 100 199 226 268 3907 -3909"/>
    </vehicle>
    <vehicle id="105" depart="31.50">
        <route edges="-249 239 641 1112 1187 gneE13"/>
    </vehicle>
    <vehicle id="106" depart="31.80">
        <route edges="3 27 34 133 219 239 641 1112 1187"/>
    </vehicle>
    <vehicle id="107" depart="32.10">
        <route edges="gneE35 -1635 -1094 -1036 1028 1160 -1092"/>
    </vehicle>
    <vehicle id="108" depart="32.40">
        <route edges="70 476 813 816 882 1037 -387 383 219 239 641 1112 1181"/>
    </vehicle>
    <vehicle id="109" depart="32.70">
        <route edges="2120 2183 gneE31 -1106 -1039 636 816 866 1032 1092 1177 4046 gneE33"/>
    </vehicle>
    <vehicle id="110" depart="33.00">
        <route edges="-38 34 70 476 1075 1299 -1309 1635 1835 2096 3131 4738 5002 -2872 -2096 -1835"/>
    </vehicle>
    <vehicle id="111" depart="33.30">
        <route edges="-3907 619 668"/>
    </vehicle>
    <vehicle id="112" depart="33.60">
        <route edges="-1181 1187 1266 1855 2110 gneE10 gneE9"/>
    </vehicle>
    <vehicle id="113" depart="33.90">
        <route edges="-2999 -2919 404 -362 -153 -23 -11 3 27 34 133 219 237 885 1106 gneE32"/>
    </vehicle>
    <vehicle id="114" depart="34.20">
        <route edges="2120 2183 gneE31 -1106 -885 341 387 1039 1106 gneE32"/>
    </vehicle>
    <vehicle id="115" depart="34.50">
        <route edges="2868 2942 gneE31 -1106 -885 341 383 -133 70 464 -395 252 -230"/>
    </vehicle>
    <vehicle id="116" depart="34.80">
        <route edges="gneE17 gneE20 1160 1177 4046 gneE33 4738 5001 2233 2403 -429 -404 2919 2998 -670 -619 -268"/>
    </vehicle>
    <vehicle id="117" depart="35.10">
        <route edges="3440 -3326 -3108 4624 5001 2152 2213 gneE38 -1635 -1094 1093 -1075 813 816 882 1037 1039 1106 gneE32 -2942"/>
    </vehicle>
    <vehicle id="118" depart="35.40">
        <route edges="1414 -1344"/>
    </vehicle>
    <vehicle id="119" depart="35.70">
        <route edges="-1152 -380 -15 3 27 34 133 219 237 885 1106 gneE14 1266 1855 2110 gneE10"/>
    </vehicle>
    <vehicle id="120" depart="36.00">
        <route edges="821 -665 -265 73 75 -5 11 23 153 230"/>
    </vehicle>
    <vehicle id="121" depart="36.30">
        <route edges="383 -133 70 464 -395 252 -230 362"/>
    </vehicle>
    <vehicle id="122" depart="36.60">
        <route edges="gneE37 -2213 -2152 2233 2403 -429 411 2152 2213 gneE38 -1635 -1090 -1032 -866"/>
    </vehicle>
    <vehicle id="123" depart="36.90">
        <route edges="-2868 -1084 1076 1037 1039 1106 gneE14 1266 1855 2120 gneE7"/>
    </vehicle>
    <vehicle id="124" depart="37.20">
        <route edges="1021 1084 1157 1253 1308 gneE20 1160 1177 4046 gneE33 3440 -3326 -3108"/>
    </vehicle>
    <vehicle id="125" depart="37.50">
        <route edges="-821 -646 -586 -391 614 649 1047 1117"/>
    </vehicle>
    <vehicle id="126" depart="37.80">
        <route edges="2403 -429 411 2152 2213 gneE38 -1635 1309 -1299 -1093"/>
    </vehicle>
    <vehicle id="127" depart="38.10">
        <route edges="268 619 670 -1416 -1344 311 -293 -153 -23 -11 3 27 34 133 219 239 641 1112 1181 1261 1316 1368 2798"/>
    </vehicle>
    <vehicle id="128" depart="38.40">
        <route edges="-1160 -1028 1032 1092 1177 4046 gneE33"/>
    </vehicle>
    <vehicle id="129" depart="38.70">
        <route edges="-2839 2835 -2769 -429 -362 -153 -23 -11 3 27 34 133 219 239 641 1112 1181 1261 1316 1368 2798 5497 5826 -4750"/>
    </vehicle>
    <vehicle id="130" depart="39.00">
        <route edges="-362 230 -252 395 -464 476 813 816 882"/>
    </vehicle>
    <vehicle id="131" depart="39.30">
        <route edges="639 649 1047 1117 1187 1266 1855 2110"/>
    </vehicle>
    <vehicle id="132" depart="39.60">
        <route edges="-270 -226 2395 2757 -1152 -380 -15 3 27 34 70 476 813 816 882"/>
    </vehicle>
    <vehicle id="133" depart="39.90">
        <route edges="1193 -659 649 1047 1119 -1259"/>
    </vehicle>
    <vehicle id="134" depart="40.20">
        <route edges="1093 -1075 -476 464 -395 252 -230 293 323"/>
    </vehicle>
    <vehicle id="135" depart="40.50">
        <route edges="1414 -1344 311 -293 230 -252 395 -464 476 813 816 864 1025 1253 1308"/>
    </vehicle>
    <vehicle id="136" depart="40.80">
        <route edges="-364 -335 -11 3 27 34 133 219 239 641"/>
    </vehicle>
    <vehicle id="137" depart="41.10">
        <route edges="-1855 -1266 gneE13 -1106 -885 341 383 -133 70 464 -395 252 -230 293 323 2919 2998 3600 3902"/>
    </vehicle>
    <vehicle id="138" depart="41.40">
        <route edges="-2835 -2147 404 -362 -153 -23 -11 3 27 34 133 219 237 885 1106 -1108"/>
    </vehicle>
    <vehicle id="139" depart="41.70">
        <route edges="-404 2147 2835 -2769 -2403"/>
    </vehicle>
    <vehicle id="140" depart="42.00">
        <route edges="-5268 2757 -1152 -380 -15 11 23 153 362 411 2233 2405 2859 2928 4624 5001"/>
    </vehicle>
    <vehicle id="141" depart="42.30">
        <route edges="-1835 -1635 1309 -1328 -395 252 -230 293 -311 1344 -1414"/>
    </vehicle>
    <vehicle id="142" depart="42.60">
        <route edges="-1037 -882 866 1036 1093 -1075 -476 464 -395 252 -230"/>
    </vehicle>
    <vehicle id="143" depart="42.90">
        <route edges="2183 gneE31 -1106 -1039 636 816 866 1036 1094 1635 1835 2096 3131 4738 5002"/>
    </vehicle>
    <vehicle id="144" depart="43.20">
        <route edges="-1299 -1075 813 816 864"/>
    </vehicle>
    <vehicle id="145" depart="43.50">
        <route edges="-411 -404 2919 2998 -670"/>
    </vehicle>
    <vehicle id="146" depart="43.80">
        <route edges="-311 1344 1416 -2998 2999 -3902"/>
    </vehicle>
    <vehicle id="147" depart="44.10">
        <route edges="2120 2183 gneE31 -1106 -1039 636 816 864 1027 gneE19"/>
    </vehicle>
    <vehicle id="148" depart="44.40">
        <route edges="-3902 -3600 -1416 -1414 -199 283 1344"/>
    </vehicle>
    <vehicle id="149" depart="44.70">
        <route edges="-707 -91 -11 3 27 34 133 219 239 639 659 -1193 -1121"/>
    </vehicle>
    <vehicle id="150" depart="45.00">
        <route edges="270 -5652 -5268 2757 -1152 -380 -15 11 23 153 293 323 2147 2835 -2769"/>
    </vehicle>
    <vehicle id="151" depart="45.30">
        <route edges="gneE32 -2942 -2868 1157 1253 1308 gneE20 1160 1177 4046 gneE33 4738 5001 2233 2405 2857 -2835 2839"/>
    </vehicle>
    <vehicle id="152" depart="45.60">
        <route edges="gneE37 -2213 -2152 2233 2403 -429 -362 230 287 -364"/>
    </vehicle>
    <vehicle id="153" depart="45.90">
        <route edges="362 411 2152 2213 gneE38 -1635 -1094 1093 -1075 813 816 864 1025"/>
    </vehicle>
    <vehicle id="154" depart="46.20">
        <route edges="3600 3902 -2839 2835"/>
    </vehicle>
    <vehicle id="155" depart="46.50">
        <route edges="-2928 -2859 2857 -2769 -429 -362 -153 -23 -11 3 27 44 73"/>
    </vehicle>
    <vehicle id="156" depart="46.80">
        <route edges="38 252 -230 293 323 404 -362"/>
    </vehicle>
    <vehicle id="157" depart="47.10">
        <route edges="-5001 -4738 gneE34 -4046 gneE35"/>
    </vehicle>
    <vehicle id="158" depart="47.40">
        <route edges="-1152 -380 -15 3 27 34 70 476 813 816 864 1027"/>
    </vehicle>
    <vehicle id="159" depart="47.70">
        <route edges="619 670 -1416 -1344 311 -293 -153 -23 -11 3 27 34 133 219 239 641 1112 1181 1261 1316 1370"/>
    </vehicle>
    <vehicle id="160" depart="48.00">
        <route edges="1635 gneE36 -1177 -1160 -1027 1021 1084 2868 2942 gneE31"/>
    </vehicle>
    <vehicle id="161" depart="48.30">
        <route edges="-1106 -885 341 387 1039 1106 gneE14 1262 1316 1370 4750 -5826"/>
    </vehicle>
    <vehicle id="162" depart="48.60">
        <route edges="-311 -283 -100 -23 -11 3 27 34 133 219"/>
    </vehicle>
    <vehicle id="163" depart="48.90">
        <route edges="-4046 -1177 -1160 -1027 1021 1076 -882"/>
    </vehicle>
    <vehicle id="164" depart="49.20">
        <route edges="646 821 -665 -265 73 75 -5 11 23 100 199 1414 -1344"/>
    </vehicle>
    <vehicle id="165" depart="49.50">
        <route edges="-1148 -707 -91 23 100 199 2395 5268 5652 -270"/>
    </vehicle>
    <vehicle id="166" depart="49.80">
        <route edges="-100 -23 -11 5 -75"/>
    </vehicle>
    <vehicle id="167" depart="50.10">
        <route edges="464 -395 -38 34 133 219 239 639 649"/>
    </vehicle>
    <vehicle id="168" depart="50.40">
        <route edges="gneE25 -4229 -3907 619 670 -2998 -2919 404 411 2152 2213 gneE38 1835 2096 2872 -5002"/>
    </vehicle>
    <vehicle id="169" depart="50.70">
        <route edges="gneE39 gneE25 -4229 -3907 619 670 -1416 -1344 311 -293 -153"/>
    </vehicle>
    <vehicle id="170" depart="51.00">
        <route edges="gneE32 -2942 -2868 -1084 1076 1037 -387 383 219 249 391 586 gneE23 -4250 -2779 -1148 -707"/>
    </vehicle>
    <vehicle id="171" depart="51.30">
        <route edges="364 -287 -230 362 429 2769"/>
    </vehicle>
    <vehicle id="172" depart="51.60">
        <route edges="-395 -38 34 70 476 813 816 866 1028 -1027"/>
    </vehicle>
    <vehicle id="173" depart="51.90">
        <route edges="1025 1253 1308 gneE20 -1028 1036 1093 -1075 -476 -70 -34 44 73 75 397 -380 -15"/>
    </vehicle>
    <vehicle id="174" depart="52.20">
        <route edges="-268 -226 -199 283 311 323 404 411 -5001"/>
    </vehicle>
    <vehicle id="175" depart="52.50">
        <route edges="1160 1177 4046 gneE33 4738 5001"/>
    </vehicle>
    <vehicle id="176" depart="52.80">
        <route edges="2183 gneE31 -1106 -885 -237 -219 -383"/>
    </vehicle>
    <vehicle id="177" depart="53.10">
        <route edges="1037 636 816 866 1032 1092 1177 gneE35"/>
    </vehicle>
    <vehicle id="178" depart="53.40">
        <route edges="3600 3902 -2839 -2147"/>
    </vehicle>
    <vehicle id="179" depart="53.70">
        <route edges="2648 -894 821 -665 -265 73 75 -5 11 23 153 293 323 2147 2839 -2999"/>
    </vehicle>
    <vehicle id="180" depart="54.00">
        <route edges="-1117 -1047 -649 -614 391 586 646 821 -665 -265 73 75 -5 11 23 100 199 1414"/>
    </vehicle>
    <vehicle id="181" depart="54.30">
        <route edges="619 670 -2998 -2919 404 411 2233"/>
    </vehicle>
    <vehicle id="182" depart="54.60">
        <route edges="-75 -64 27 44 73 75 397"/>
    </vehicle>
    <vehicle id="183" depart="54.90">
        <route edges="-2798 -1368 -1316 -1262 gneE13 -1106 -885 341 383 -133 70 464 -395 252 -230 293"/>
    </vehicle>
    <vehicle id="184" depart="55.20">
        <route edges="-2857"/>
    </vehicle>
    <vehicle id="185" depart="55.50">
        <route edges="1855 2120 2183 gneE31"/>
    </vehicle>
    <vehicle id="186" depart="55.80">
        <route edges="gneE37 -2213 -2152 2233 2403 -429 411 2152 2213 gneE38 1835 2096 2872"/>
    </vehicle>
    <vehicle id="187" depart="56.10">
        <route edges="-1112 5519 -5824 -5493 341 383 -133 -34 38 395 -464"/>
    </vehicle>
    <vehicle id="188" depart="56.40">
        <route edges="gneE14 1266 1855 2120 2183 gneE31 -1106 -885 341 383 -133 70 464 -395 252 -230 293 -311 1344 -1414"/>
    </vehicle>
    <vehicle id="189" depart="56.70">
        <route edges="-364 -335 23 153 362 429 2769"/>
    </vehicle>
    <vehicle id="190" depart="57.00">
        <route edges="1121 1193 -659 -614 -249 237 341 387 636 816 866 1032 1092 1171 gneE22"/>
    </vehicle>
    <vehicle id="191" depart="57.30">
        <route edges="586 646 821 -665 -265 -44 34 133 219 237 885 1106 gneE14 1266 1855 2120 2183 gneE31"/>
    </vehicle>
    <vehicle id="192" depart="57.60">
        <route edges="1368 2798 2880 -1370 -1316 -1262 gneE13 -1106 -1039 636 816 866 1032 1090 1309"/>
    </vehicle>
    <vehicle id="193" depart="57.90">
        <route edges="-1037 -882 866 1036 1093 -1075 -476 464 -395 252 287 -364 -335 23 100"/>
    </vehicle>
    <vehicle id="194" depart="58.20">
        <route edges="404 411 2152 2213 gneE38 -1635 -1094 1093"/>
    </vehicle>
    <vehicle id="195" depart="58.50">
        <route edges="-639 641 1108 -1106 -1039 636 816 866 1036 1094 1635 1835 2096 2872 -5002"/>
    </vehicle>
    <vehicle id="196" depart="58.80">
        <route edges="2147 2835 -2857 -2405 -2233"/>
    </vehicle>
    <vehicle id="197" depart="59.10">
        <route edges="239 639 -614 391 586 646 821 -665 -265 73 75 -5 11 23 153 293 323 2919 2998"/>
    </vehicle>
    <vehicle id="198" depart="59.40">
        <route edges="335 364 -287 -252 395 -464 -70 133 219 237 885 1106 gneE14 1266 1855 2110"/>
    </vehicle>
    <vehicle id="199" depart="59.70">
        <route edges="-283 -100 -23 -11 3 27 34 133 219"/>
    </vehicle>
    <vehicle id="200" depart="60.00">
        <route edges="-411 -362 -153 -23 -11 3 27 34 133 219 239 641 5519 -5824 -5493"/>
    </vehicle>
    <vehicle id="201" depart="60.30">
        <route edges="659 -1193 -1121 1117 1187 gneE13 -1106 -885 341 383 -133 70 464 -395 252 -230 362 -404 -323"/>
    </vehicle>
    <vehicle id="202" depart="60.60">
        <route edges="-2835 -2147 404 429 -2403 -2233"/>
    </vehicle>
    <vehicle id="203" depart="60.90">
        <route edges="gneE9 2183 gneE31 -1106 -1039 636 816 866 1032 1092 1177 4046"/>
    </vehicle>
    <vehicle id="204" depart="61.20">
        <route edges="2798 2880 -1370 -1316 -1262 gneE13 -1106 -885 341 383 -133 70 464 -395 252 287 -364 -335 23 100 199 1414 -1344"/>
    </vehicle>
    <vehicle id="205" depart="61.50">
        <route edges="283 311 -293 230 -252 395 -464 476 813 816 864 1021 1084 1157"/>
    </vehicle>
    <vehicle id="206" depart="61.80">
        <route edges="-1090 1092 1177 4046 gneE33 4738 5001 2233 2403 -429 -404 2919 2999"/>
    </vehicle>
    <vehicle id="207" depart="62.10">
        <route edges="5652 -270 268 619 670 -2998 -2919 404 411 2152 2213 gneE38 gneE36 4046 gneE33"/>
    </vehicle>
    <vehicle id="208" depart="62.40">
        <route edges="-3909 -272 268 619 670 -2998 -2919 404 411 -5001 -4624"/>
    </vehicle>
    <vehicle id="209" depart="62.70">
        <route edges="-395 252 287 -364 -335 23 100 199 226 268 1583 3292 4107 5542"/>
    </vehicle>
    <vehicle id="210" depart="63.00">
        <route edges="gneE21 gneE17 gneE20 1160 1177 4046 gneE33 4738 5001 2233 2405 2857 -2835 2839 -3902 3903 gneE39 gneE25 -4229 -3907"/>
    </vehicle>
    <vehicle id="211" depart="63.30">
        <route edges="gneE38 -1635 1309 -1328 -395 252 287 -364 -335 23 100 199 226 268"/>
    </vehicle>
    <vehicle id="212" depart="63.60">
        <route edges="-2281 -1230 -665 -265 -44 34 133 219 239 641 1108 -1106"/>
    </vehicle>
    <vehicle id="213" depart="63.90">
        <route edges="-3308 -3108 4624 5001 2152 2213 gneE38 -1635 -1094 1093 -1075 -476 -70 133 219 239 641 1112 1181 1259 -1119"/>
    </vehicle>
    <vehicle id="214" depart="64.20">
        <route edges="237 885 1106 gneE14 1262 -1261 -1181"/>
    </vehicle>
    <vehicle id="215" depart="64.50">
        <route edges="5 -75 -64 27 34 70 476 813 816 864 1027 gneE19"/>
    </vehicle>
    <vehicle id="216" depart="64.80">
        <route edges="-2120 -1855 -1266 gneE13 -1106 -885 341 383 -133 70 464 -395 252 287 -364 -335 23 100 199 226 268 3907 4229 gneE26"/>
    </vehicle>
    <vehicle id="217" depart="65.10">
        <route edges="-75 -64 27 38 395 1328 -1309 1635 1835 2096 3131 4738 5002 -2872 -2096"/>
    </vehicle>
    <vehicle id="218" depart="65.40">